 Ntasks in X            1 , ntasks in Y            1
--- WARNING: traj_opt is zero, but num_traj is not zero; setting num_traj to zero.
--- NOTE: sst_update is 0, setting io_form_auxinput4 = 0 and auxinput4_interval = 0 for all domains
--- NOTE: grid_fdda is 0 for domain      1, setting gfdda interval and ending time to 0 for that domain.
--- NOTE: both grid_sfdda and pxlsm_soil_nudge are 0 for domain      1, setting sgfdda interval and ending time to 0 for that domain.
--- NOTE: obs_nudge_opt is 0 for domain      1, setting obs nudging interval and ending time to 0 for that domain.
--- NOTE: bl_pbl_physics /= 4, implies mfshconv must be 0, resetting
Need MYNN PBL for icloud_bl = 1, resetting to 0
--- NOTE: RRTMG radiation is not used, setting:  o3input=0 to avoid data pre-processing
*************************************
Configuring physics suite 'conus'

         mp_physics:      8
         cu_physics:      6
      ra_lw_physics:      4
      ra_sw_physics:      4
     bl_pbl_physics:      2
  sf_sfclay_physics:      2
 sf_surface_physics:      2
*************************************
--- NOTE: RRTMG radiation is in use, setting:  levsiz=59, alevsiz=12, no_src_types=6
--- NOTE: num_soil_layers has been set to      4
WRF V3.9.1.1 MODEL
  wrf: calling alloc_and_configure_domain
 *************************************
 Parent domain
 ids,ide,jds,jde            1          74           1          61
 ims,ime,jms,jme           -4          79          -4          66
 ips,ipe,jps,jpe            1          74           1          61
 *************************************
DYNAMICS OPTION: Eulerian Mass Coordinate
   alloc_space_field: domain            1 ,             134701856  bytes allocated
  wrf: calling model_to_grid_config_rec
  wrf: calling set_scalar_indices_from_config
  wrf: calling init_wrfio
  Entering ext_gr1_ioinit
   setup_timekeeping:  set xtime to    0.00000000
   setup_timekeeping:  set julian to    94.0000000
  setup_timekeeping:  returning...
  wrf main: calling open_r_dataset for wrfinput
  med_initialdata_input: calling input_input
  mminlu = 'MODIFIED_IGBP_MODIS_NOAH'
  med_initialdata_input: back from input_input
Timing for processing wrfinput file (stream 0) for domain        1:    0.01602 elapsed seconds
   checking boundary conditions for grid
   boundary conditions OK for grid
Max map factor in domain 1 =  1.03. Scale the dt in the model accordingly.
  start_domain_em: Before call to phy_init
  WRF TILE   1 IS      1 IE     74 JS      1 JE     61
  set_tiles3: NUMBER OF TILES =   1
  top of phy_init
   phy_init:  start_of_simulation =  T
  calling nl_get_iswater, nl_get_isice, nl_get_mminlu_loc
  after nl_get_iswater, nl_get_isice, nl_get_mminlu_loc
  top of landuse_init
INPUT LandUse = "MODIFIED_IGBP_MODIS_NOAH"
 LANDUSE TYPE = "MODIFIED_IGBP_MODIS_NOAH" FOUND          33  CATEGORIES           2  SEASONS WATER CATEGORY =           17  SNOW CATEGORY =           15
  returning from of landuse_init
INITIALIZE THREE Noah LSM RELATED TABLES
Skipping over LUTYPE = USGS
 LANDUSE TYPE = MODIFIED_IGBP_MODIS_NOAH FOUND          20  CATEGORIES
 INPUT SOIL TEXTURE CLASSIFICATION = STAS
 SOIL TEXTURE CLASSIFICATION = STAS FOUND          19  CATEGORIES
ThompMP: read qr_acr_qg.dat stead of computing
ThompMP: read qr_acr_qs.dat instead of computing
ThompMP: read freezeH2O.dat stead of computing
  start_domain_em: After call to phy_init
  start_em: calling lightning_init
  start_em: after calling lightning_init
  calling inc/HALO_EM_INIT_1_inline.inc
  calling inc/HALO_EM_INIT_2_inline.inc
  calling inc/HALO_EM_INIT_3_inline.inc
  calling inc/HALO_EM_INIT_4_inline.inc
  calling inc/HALO_EM_INIT_5_inline.inc
  calling inc/PERIOD_BDY_EM_INIT_inline.inc
  calling inc/PERIOD_BDY_EM_MOIST_inline.inc
  calling inc/PERIOD_BDY_EM_TKE_inline.inc
  calling inc/PERIOD_BDY_EM_SCALAR_inline.inc
  calling inc/PERIOD_BDY_EM_CHEM_inline.inc
  calling inc/HALO_EM_INIT_1_inline.inc
  calling inc/HALO_EM_INIT_2_inline.inc
  calling inc/HALO_EM_INIT_3_inline.inc
  calling inc/HALO_EM_INIT_4_inline.inc
  calling inc/HALO_EM_INIT_5_inline.inc
  calling inc/PERIOD_BDY_EM_INIT_inline.inc
  calling inc/PERIOD_BDY_EM_MOIST_inline.inc
  calling inc/PERIOD_BDY_EM_TKE_inline.inc
  calling inc/PERIOD_BDY_EM_SCALAR_inline.inc
  calling inc/PERIOD_BDY_EM_CHEM_inline.inc
  start_domain_em: Returning
  wrf: calling integrate
d01 2018-04-05_00:00:00 open_hist_w : opening wrfout_d01_2018-04-05_00:00:00 for writing.
d01 2018-04-05_00:00:00 calling wrf_open_for_write_begin in open_w_dataset
d01 2018-04-05_00:00:00  module_io.F: in wrf_open_for_write_begin, FileName = wrfout_d01_2018-04-05_00:00:00
d01 2018-04-05_00:00:00 calling outsub in open_w_dataset
d01 2018-04-05_00:00:00 back from outsub in open_w_dataset
d01 2018-04-05_00:00:00 calling wrf_open_for_write_commit in open_w_dataset
d01 2018-04-05_00:00:00  Information: NOFILL being set for writing to wrfout_d01_2018-04-05_00:00:00
d01 2018-04-05_00:00:00 back from wrf_open_for_write_commit in open_w_dataset
d01 2018-04-05_00:00:00  med_hist_out: opened wrfout_d01_2018-04-05_00:00:00 as DATASET=HISTORY
Timing for Writing wrfout_d01_2018-04-05_00:00:00 for domain        1:    0.64391 elapsed seconds
d01 2018-04-05_00:00:00 in med_latbound_in preparing to read
d01 2018-04-05_00:00:00  Opening: wrfbdy_d01
d01 2018-04-05_00:00:00 med_latbound_in: calling input_boundary
d01 2018-04-05_00:00:00 mminlu = 'MODIFIED_IGBP_MODIS_NOAH'
Timing for processing lateral boundary for domain        1:    0.00549 elapsed seconds
d01 2018-04-05_00:00:00 module_integrate: calling solve interface
 Tile Strategy is not specified. Assuming 1D-Y
WRF TILE   1 IS      1 IE     74 JS      1 JE     61
WRF NUMBER OF TILES =   1
d01 2018-04-05_00:00:00  grid spacing, dt, time_step_sound=   30000.0000       180.000000               4
d01 2018-04-05_00:00:00 calling inc/HALO_EM_A_inline.inc
d01 2018-04-05_00:00:00 calling inc/PERIOD_BDY_EM_A_inline.inc
d01 2018-04-05_00:00:00 calling inc/HALO_EM_PHYS_A_inline.inc
d01 2018-04-05_00:00:00 Top of Radiation Driver
d01 2018-04-05_00:00:00 CALL cldfra1
d01 2018-04-05_00:00:00 CALL rrtmg_lw
d01 2018-04-05_00:00:00 CALL rrtmg_sw
d01 2018-04-05_00:00:00 calling inc/HALO_PWP_inline.inc
d01 2018-04-05_00:00:00 in MYJSFC
d01 2018-04-05_00:00:00 in NOAH DRV
d01 2018-04-05_00:00:00 in MYJPBL
d01 2018-04-05_00:00:00 in cu_tiedtke
d01 2018-04-05_00:00:00 calling inc/HALO_EM_FDDA_SFC_inline.inc
d01 2018-04-05_00:00:00 calling inc/HALO_EM_TKE_C_inline.inc
d01 2018-04-05_00:00:00 calling inc/PERIOD_BDY_EM_A1_inline.inc
d01 2018-04-05_00:00:00 calling inc/HALO_EM_HELICITY_inline.inc
d01 2018-04-05_00:00:00 calling inc/HALO_EM_TKE_D_inline.inc
d01 2018-04-05_00:00:00 calling inc/HALO_EM_TKE_E_inline.inc
d01 2018-04-05_00:00:00 calling inc/PERIOD_BDY_EM_PHY_BC_inline.inc
d01 2018-04-05_00:00:00 calling inc/PERIOD_BDY_EM_CHEM_inline.inc
d01 2018-04-05_00:00:00 calling inc/HALO_EM_PHYS_PBL_inline.inc
d01 2018-04-05_00:00:00 calling inc/HALO_EM_PHYS_CU_inline.inc
d01 2018-04-05_00:00:00 calling inc/HALO_EM_PHYS_DIFFUSION_inline.inc
d01 2018-04-05_00:00:00 calling inc/HALO_EM_TKE_5_inline.inc
d01 2018-04-05_00:00:00 calling inc/HALO_EM_B_inline.inc
d01 2018-04-05_00:00:00 calling inc/PERIOD_BDY_EM_B_inline.inc
d01 2018-04-05_00:00:00 calling inc/PERIOD_BDY_EM_B_inline.inc
d01 2018-04-05_00:00:00 calling inc/HALO_EM_C_inline.inc
d01 2018-04-05_00:00:00 calling inc/HALO_EM_C2_inline.inc
d01 2018-04-05_00:00:00 calling inc/PERIOD_BDY_EM_B3_inline.inc
d01 2018-04-05_00:00:00 calling inc/HALO_EM_D_inline.inc
d01 2018-04-05_00:00:00 calling inc/PERIOD_EM_DA_inline.inc
d01 2018-04-05_00:00:00 calling inc/HALO_EM_D2_5_inline.inc
d01 2018-04-05_00:00:00 calling inc/PERIOD_BDY_EM_D_inline.inc
d01 2018-04-05_00:00:00 calling inc/PERIOD_BDY_EM_MOIST2_inline.inc
d01 2018-04-05_00:00:00 calling inc/PERIOD_BDY_EM_CHEM2_inline.inc
d01 2018-04-05_00:00:00 calling inc/PERIOD_BDY_EM_TRACER2_inline.inc
d01 2018-04-05_00:00:00 calling inc/PERIOD_BDY_EM_SCALAR2_inline.inc
d01 2018-04-05_00:00:00 calling inc/PERIOD_BDY_EM_TKE_inline.inc
d01 2018-04-05_00:00:00 calling inc/HALO_EM_TKE_5_inline.inc
d01 2018-04-05_00:00:00 calling inc/HALO_EM_MOIST_E_5_inline.inc
d01 2018-04-05_00:00:00 calling inc/HALO_EM_SCALAR_E_5_inline.inc
d01 2018-04-05_00:00:00 calling inc/HALO_EM_A_inline.inc
d01 2018-04-05_00:00:00 calling inc/PERIOD_BDY_EM_A_inline.inc
d01 2018-04-05_00:00:00 calling inc/HALO_EM_B_inline.inc
d01 2018-04-05_00:00:00 calling inc/PERIOD_BDY_EM_B_inline.inc
d01 2018-04-05_00:00:00 calling inc/PERIOD_BDY_EM_B_inline.inc
d01 2018-04-05_00:00:00 calling inc/HALO_EM_C_inline.inc
d01 2018-04-05_00:00:00 calling inc/HALO_EM_C2_inline.inc
d01 2018-04-05_00:00:00 calling inc/PERIOD_BDY_EM_B3_inline.inc
d01 2018-04-05_00:00:00 calling inc/PERIOD_BDY_EM_B_inline.inc
d01 2018-04-05_00:00:00 calling inc/HALO_EM_C_inline.inc
d01 2018-04-05_00:00:00 calling inc/HALO_EM_C2_inline.inc
d01 2018-04-05_00:00:00 calling inc/PERIOD_BDY_EM_B3_inline.inc
d01 2018-04-05_00:00:00 calling inc/HALO_EM_D_inline.inc
d01 2018-04-05_00:00:00 calling inc/PERIOD_EM_DA_inline.inc
d01 2018-04-05_00:00:00 calling inc/HALO_EM_D2_5_inline.inc
d01 2018-04-05_00:00:00 calling inc/PERIOD_BDY_EM_D_inline.inc
d01 2018-04-05_00:00:00 calling inc/PERIOD_BDY_EM_MOIST2_inline.inc
d01 2018-04-05_00:00:00 calling inc/PERIOD_BDY_EM_CHEM2_inline.inc
d01 2018-04-05_00:00:00 calling inc/PERIOD_BDY_EM_TRACER2_inline.inc
d01 2018-04-05_00:00:00 calling inc/PERIOD_BDY_EM_SCALAR2_inline.inc
d01 2018-04-05_00:00:00 calling inc/PERIOD_BDY_EM_TKE_inline.inc
d01 2018-04-05_00:00:00 calling inc/HALO_EM_TKE_7_inline.inc
d01 2018-04-05_00:00:00 calling inc/HALO_EM_MOIST_E_7_inline.inc
d01 2018-04-05_00:00:00 calling inc/HALO_EM_SCALAR_E_7_inline.inc
d01 2018-04-05_00:00:00 calling inc/HALO_EM_A_inline.inc
d01 2018-04-05_00:00:00 calling inc/PERIOD_BDY_EM_A_inline.inc
d01 2018-04-05_00:00:00 calling inc/HALO_EM_B_inline.inc
d01 2018-04-05_00:00:00 calling inc/PERIOD_BDY_EM_B_inline.inc
d01 2018-04-05_00:00:00 calling inc/PERIOD_BDY_EM_B_inline.inc
d01 2018-04-05_00:00:00 calling inc/HALO_EM_C_inline.inc
d01 2018-04-05_00:00:00 calling inc/HALO_EM_C2_inline.inc
d01 2018-04-05_00:00:00 calling inc/PERIOD_BDY_EM_B3_inline.inc
d01 2018-04-05_00:00:00 calling inc/PERIOD_BDY_EM_B_inline.inc
d01 2018-04-05_00:00:00 calling inc/HALO_EM_C_inline.inc
d01 2018-04-05_00:00:00 calling inc/HALO_EM_C2_inline.inc
d01 2018-04-05_00:00:00 calling inc/PERIOD_BDY_EM_B3_inline.inc
d01 2018-04-05_00:00:00 calling inc/PERIOD_BDY_EM_B_inline.inc
d01 2018-04-05_00:00:00 calling inc/HALO_EM_C_inline.inc
d01 2018-04-05_00:00:00 calling inc/HALO_EM_C2_inline.inc
d01 2018-04-05_00:00:00 calling inc/PERIOD_BDY_EM_B3_inline.inc
d01 2018-04-05_00:00:00 calling inc/PERIOD_BDY_EM_B_inline.inc
d01 2018-04-05_00:00:00 calling inc/HALO_EM_C_inline.inc
d01 2018-04-05_00:00:00 calling inc/HALO_EM_C2_inline.inc
d01 2018-04-05_00:00:00 calling inc/PERIOD_BDY_EM_B3_inline.inc
d01 2018-04-05_00:00:00 calling inc/HALO_EM_MOIST_OLD_E_7_inline.inc
d01 2018-04-05_00:00:00 calling inc/PERIOD_BDY_EM_MOIST_OLD_inline.inc
d01 2018-04-05_00:00:00 calling inc/HALO_EM_SCALAR_OLD_E_7_inline.inc
d01 2018-04-05_00:00:00 calling inc/PERIOD_BDY_EM_SCALAR_OLD_inline.inc
d01 2018-04-05_00:00:00 calling inc/HALO_EM_CHEM_OLD_E_7_inline.inc
d01 2018-04-05_00:00:00 calling inc/PERIOD_BDY_EM_CHEM_OLD_inline.inc
d01 2018-04-05_00:00:00 calling inc/HALO_EM_TRACER_OLD_E_7_inline.inc
d01 2018-04-05_00:00:00 calling inc/PERIOD_BDY_EM_TRACER_OLD_inline.inc
d01 2018-04-05_00:00:00 calling inc/HALO_EM_D_inline.inc
d01 2018-04-05_00:00:00 calling inc/PERIOD_EM_DA_inline.inc
d01 2018-04-05_00:00:00 calling inc/HALO_EM_SBM_inline.inc
d01 2018-04-05_00:00:00 microphysics_driver: calling thompson
d01 2018-04-05_00:00:00 calling inc/HALO_EM_D3_5_inline.inc
d01 2018-04-05_00:00:00 calling inc/PERIOD_BDY_EM_D3_inline.inc
d01 2018-04-05_00:00:00 calling inc/PERIOD_BDY_EM_MOIST_inline.inc
d01 2018-04-05_00:00:00 calling inc/PERIOD_BDY_EM_CHEM_inline.inc
d01 2018-04-05_00:00:00 calling inc/PERIOD_BDY_EM_TRACER_inline.inc
d01 2018-04-05_00:00:00 calling inc/PERIOD_BDY_EM_SCALAR_inline.inc
d01 2018-04-05_00:00:00 calling inc/HALO_EM_C_inline.inc
d01 2018-04-05_00:00:00 calling inc/PERIOD_BDY_EM_E_inline.inc
d01 2018-04-05_00:00:00  call set_w_surface
d01 2018-04-05_00:00:00 calling inc/HALO_EM_PHYS_W_inline.inc
d01 2018-04-05_00:00:00 calling inc/HALO_EM_PHYS_HCW_inline.inc
d01 2018-04-05_00:00:00 --> TOP OF AFTER ALL RK STEPS
d01 2018-04-05_00:00:00 --> CALLING DIAGNOSTICS DRIVER
d01 2018-04-05_00:00:00 --> TOP OF DIAGNOSTICS PACKAGE
d01 2018-04-05_00:00:00 --> CALL DIAGNOSTICS PACKAGE: NWP DIAGNOSTICS
d01 2018-04-05_00:00:00 calling inc/HALO_EM_E_5_inline.inc
d01 2018-04-05_00:00:00 calling inc/HALO_EM_MOIST_E_5_inline.inc
d01 2018-04-05_00:00:00 calling inc/HALO_EM_SCALAR_E_5_inline.inc
d01 2018-04-05_00:03:00 module_integrate: back from solve interface
Timing for main: time 2018-04-05_00:03:00 on domain   1:    3.37711 elapsed seconds
d01 2018-04-05_00:03:00 module_integrate: calling solve interface
d01 2018-04-05_00:03:00  grid spacing, dt, time_step_sound=   30000.0000       180.000000               4
d01 2018-04-05_00:03:00 calling inc/HALO_EM_A_inline.inc
d01 2018-04-05_00:03:00 calling inc/PERIOD_BDY_EM_A_inline.inc
d01 2018-04-05_00:03:00 calling inc/HALO_EM_PHYS_A_inline.inc
d01 2018-04-05_00:03:00 Top of Radiation Driver
d01 2018-04-05_00:03:00 calling inc/HALO_PWP_inline.inc
d01 2018-04-05_00:03:00 in MYJSFC
d01 2018-04-05_00:03:00 in NOAH DRV
d01 2018-04-05_00:03:00 in MYJPBL
d01 2018-04-05_00:03:00 in cu_tiedtke
d01 2018-04-05_00:03:00 calling inc/HALO_EM_FDDA_SFC_inline.inc
d01 2018-04-05_00:03:00 calling inc/HALO_EM_TKE_C_inline.inc
d01 2018-04-05_00:03:00 calling inc/PERIOD_BDY_EM_A1_inline.inc
d01 2018-04-05_00:03:00 calling inc/HALO_EM_HELICITY_inline.inc
d01 2018-04-05_00:03:00 calling inc/HALO_EM_TKE_D_inline.inc
d01 2018-04-05_00:03:00 calling inc/HALO_EM_TKE_E_inline.inc
d01 2018-04-05_00:03:00 calling inc/PERIOD_BDY_EM_PHY_BC_inline.inc
d01 2018-04-05_00:03:00 calling inc/PERIOD_BDY_EM_CHEM_inline.inc
d01 2018-04-05_00:03:00 calling inc/HALO_EM_PHYS_PBL_inline.inc
d01 2018-04-05_00:03:00 calling inc/HALO_EM_PHYS_CU_inline.inc
d01 2018-04-05_00:03:00 calling inc/HALO_EM_PHYS_DIFFUSION_inline.inc
d01 2018-04-05_00:03:00 calling inc/HALO_EM_TKE_5_inline.inc
d01 2018-04-05_00:03:00 calling inc/HALO_EM_B_inline.inc
d01 2018-04-05_00:03:00 calling inc/PERIOD_BDY_EM_B_inline.inc
d01 2018-04-05_00:03:00 calling inc/PERIOD_BDY_EM_B_inline.inc
d01 2018-04-05_00:03:00 calling inc/HALO_EM_C_inline.inc
d01 2018-04-05_00:03:00 calling inc/HALO_EM_C2_inline.inc
d01 2018-04-05_00:03:00 calling inc/PERIOD_BDY_EM_B3_inline.inc
d01 2018-04-05_00:03:00 calling inc/HALO_EM_D_inline.inc
d01 2018-04-05_00:03:00 calling inc/PERIOD_EM_DA_inline.inc
d01 2018-04-05_00:03:00 calling inc/HALO_EM_D2_5_inline.inc
d01 2018-04-05_00:03:00 calling inc/PERIOD_BDY_EM_D_inline.inc
d01 2018-04-05_00:03:00 calling inc/PERIOD_BDY_EM_MOIST2_inline.inc
d01 2018-04-05_00:03:00 calling inc/PERIOD_BDY_EM_CHEM2_inline.inc
d01 2018-04-05_00:03:00 calling inc/PERIOD_BDY_EM_TRACER2_inline.inc
d01 2018-04-05_00:03:00 calling inc/PERIOD_BDY_EM_SCALAR2_inline.inc
d01 2018-04-05_00:03:00 calling inc/PERIOD_BDY_EM_TKE_inline.inc
d01 2018-04-05_00:03:00 calling inc/HALO_EM_TKE_5_inline.inc
d01 2018-04-05_00:03:00 calling inc/HALO_EM_MOIST_E_5_inline.inc
d01 2018-04-05_00:03:00 calling inc/HALO_EM_SCALAR_E_5_inline.inc
d01 2018-04-05_00:03:00 calling inc/HALO_EM_A_inline.inc
d01 2018-04-05_00:03:00 calling inc/PERIOD_BDY_EM_A_inline.inc
d01 2018-04-05_00:03:00 calling inc/HALO_EM_B_inline.inc
d01 2018-04-05_00:03:00 calling inc/PERIOD_BDY_EM_B_inline.inc
d01 2018-04-05_00:03:00 calling inc/PERIOD_BDY_EM_B_inline.inc
d01 2018-04-05_00:03:00 calling inc/HALO_EM_C_inline.inc
d01 2018-04-05_00:03:00 calling inc/HALO_EM_C2_inline.inc
d01 2018-04-05_00:03:00 calling inc/PERIOD_BDY_EM_B3_inline.inc
d01 2018-04-05_00:03:00 calling inc/PERIOD_BDY_EM_B_inline.inc
d01 2018-04-05_00:03:00 calling inc/HALO_EM_C_inline.inc
d01 2018-04-05_00:03:00 calling inc/HALO_EM_C2_inline.inc
d01 2018-04-05_00:03:00 calling inc/PERIOD_BDY_EM_B3_inline.inc
d01 2018-04-05_00:03:00 calling inc/HALO_EM_D_inline.inc
d01 2018-04-05_00:03:00 calling inc/PERIOD_EM_DA_inline.inc
d01 2018-04-05_00:03:00 calling inc/HALO_EM_D2_5_inline.inc
d01 2018-04-05_00:03:00 calling inc/PERIOD_BDY_EM_D_inline.inc
d01 2018-04-05_00:03:00 calling inc/PERIOD_BDY_EM_MOIST2_inline.inc
d01 2018-04-05_00:03:00 calling inc/PERIOD_BDY_EM_CHEM2_inline.inc
d01 2018-04-05_00:03:00 calling inc/PERIOD_BDY_EM_TRACER2_inline.inc
d01 2018-04-05_00:03:00 calling inc/PERIOD_BDY_EM_SCALAR2_inline.inc
d01 2018-04-05_00:03:00 calling inc/PERIOD_BDY_EM_TKE_inline.inc
d01 2018-04-05_00:03:00 calling inc/HALO_EM_TKE_7_inline.inc
d01 2018-04-05_00:03:00 calling inc/HALO_EM_MOIST_E_7_inline.inc
d01 2018-04-05_00:03:00 calling inc/HALO_EM_SCALAR_E_7_inline.inc
d01 2018-04-05_00:03:00 calling inc/HALO_EM_A_inline.inc
d01 2018-04-05_00:03:00 calling inc/PERIOD_BDY_EM_A_inline.inc
d01 2018-04-05_00:03:00 calling inc/HALO_EM_B_inline.inc
d01 2018-04-05_00:03:00 calling inc/PERIOD_BDY_EM_B_inline.inc
d01 2018-04-05_00:03:00 calling inc/PERIOD_BDY_EM_B_inline.inc
d01 2018-04-05_00:03:00 calling inc/HALO_EM_C_inline.inc
d01 2018-04-05_00:03:00 calling inc/HALO_EM_C2_inline.inc
d01 2018-04-05_00:03:00 calling inc/PERIOD_BDY_EM_B3_inline.inc
d01 2018-04-05_00:03:00 calling inc/PERIOD_BDY_EM_B_inline.inc
d01 2018-04-05_00:03:00 calling inc/HALO_EM_C_inline.inc
d01 2018-04-05_00:03:00 calling inc/HALO_EM_C2_inline.inc
d01 2018-04-05_00:03:00 calling inc/PERIOD_BDY_EM_B3_inline.inc
d01 2018-04-05_00:03:00 calling inc/PERIOD_BDY_EM_B_inline.inc
d01 2018-04-05_00:03:00 calling inc/HALO_EM_C_inline.inc
d01 2018-04-05_00:03:00 calling inc/HALO_EM_C2_inline.inc
d01 2018-04-05_00:03:00 calling inc/PERIOD_BDY_EM_B3_inline.inc
d01 2018-04-05_00:03:00 calling inc/PERIOD_BDY_EM_B_inline.inc
d01 2018-04-05_00:03:00 calling inc/HALO_EM_C_inline.inc
d01 2018-04-05_00:03:00 calling inc/HALO_EM_C2_inline.inc
d01 2018-04-05_00:03:00 calling inc/PERIOD_BDY_EM_B3_inline.inc
d01 2018-04-05_00:03:00 calling inc/HALO_EM_MOIST_OLD_E_7_inline.inc
d01 2018-04-05_00:03:00 calling inc/PERIOD_BDY_EM_MOIST_OLD_inline.inc
d01 2018-04-05_00:03:00 calling inc/HALO_EM_SCALAR_OLD_E_7_inline.inc
d01 2018-04-05_00:03:00 calling inc/PERIOD_BDY_EM_SCALAR_OLD_inline.inc
d01 2018-04-05_00:03:00 calling inc/HALO_EM_CHEM_OLD_E_7_inline.inc
d01 2018-04-05_00:03:00 calling inc/PERIOD_BDY_EM_CHEM_OLD_inline.inc
d01 2018-04-05_00:03:00 calling inc/HALO_EM_TRACER_OLD_E_7_inline.inc
d01 2018-04-05_00:03:00 calling inc/PERIOD_BDY_EM_TRACER_OLD_inline.inc
d01 2018-04-05_00:03:00 calling inc/HALO_EM_D_inline.inc
d01 2018-04-05_00:03:00 calling inc/PERIOD_EM_DA_inline.inc
d01 2018-04-05_00:03:00 calling inc/HALO_EM_SBM_inline.inc
d01 2018-04-05_00:03:00 microphysics_driver: calling thompson
d01 2018-04-05_00:03:00 calling inc/HALO_EM_D3_5_inline.inc
d01 2018-04-05_00:03:00 calling inc/PERIOD_BDY_EM_D3_inline.inc
d01 2018-04-05_00:03:00 calling inc/PERIOD_BDY_EM_MOIST_inline.inc
d01 2018-04-05_00:03:00 calling inc/PERIOD_BDY_EM_CHEM_inline.inc
d01 2018-04-05_00:03:00 calling inc/PERIOD_BDY_EM_TRACER_inline.inc
d01 2018-04-05_00:03:00 calling inc/PERIOD_BDY_EM_SCALAR_inline.inc
d01 2018-04-05_00:03:00 calling inc/HALO_EM_C_inline.inc
d01 2018-04-05_00:03:00 calling inc/PERIOD_BDY_EM_E_inline.inc
d01 2018-04-05_00:03:00  call set_w_surface
d01 2018-04-05_00:03:00 calling inc/HALO_EM_PHYS_W_inline.inc
d01 2018-04-05_00:03:00 calling inc/HALO_EM_PHYS_HCW_inline.inc
d01 2018-04-05_00:03:00 --> TOP OF AFTER ALL RK STEPS
d01 2018-04-05_00:03:00 --> CALLING DIAGNOSTICS DRIVER
d01 2018-04-05_00:03:00 --> TOP OF DIAGNOSTICS PACKAGE
d01 2018-04-05_00:03:00 --> CALL DIAGNOSTICS PACKAGE: NWP DIAGNOSTICS
d01 2018-04-05_00:03:00 calling inc/HALO_EM_E_5_inline.inc
d01 2018-04-05_00:03:00 calling inc/HALO_EM_MOIST_E_5_inline.inc
d01 2018-04-05_00:03:00 calling inc/HALO_EM_SCALAR_E_5_inline.inc
d01 2018-04-05_00:06:00 module_integrate: back from solve interface
Timing for main: time 2018-04-05_00:06:00 on domain   1:    0.49819 elapsed seconds
d01 2018-04-05_00:06:00 module_integrate: calling solve interface
d01 2018-04-05_00:06:00  grid spacing, dt, time_step_sound=   30000.0000       180.000000               4
d01 2018-04-05_00:06:00 calling inc/HALO_EM_A_inline.inc
d01 2018-04-05_00:06:00 calling inc/PERIOD_BDY_EM_A_inline.inc
d01 2018-04-05_00:06:00 calling inc/HALO_EM_PHYS_A_inline.inc
d01 2018-04-05_00:06:00 Top of Radiation Driver
d01 2018-04-05_00:06:00 calling inc/HALO_PWP_inline.inc
d01 2018-04-05_00:06:00 in MYJSFC
d01 2018-04-05_00:06:00 in NOAH DRV
d01 2018-04-05_00:06:00 in MYJPBL
d01 2018-04-05_00:06:00 calling inc/HALO_EM_FDDA_SFC_inline.inc
d01 2018-04-05_00:06:00 calling inc/HALO_EM_TKE_C_inline.inc
d01 2018-04-05_00:06:00 calling inc/PERIOD_BDY_EM_A1_inline.inc
d01 2018-04-05_00:06:00 calling inc/HALO_EM_HELICITY_inline.inc
d01 2018-04-05_00:06:00 calling inc/HALO_EM_TKE_D_inline.inc
d01 2018-04-05_00:06:00 calling inc/HALO_EM_TKE_E_inline.inc
d01 2018-04-05_00:06:00 calling inc/PERIOD_BDY_EM_PHY_BC_inline.inc
d01 2018-04-05_00:06:00 calling inc/PERIOD_BDY_EM_CHEM_inline.inc
d01 2018-04-05_00:06:00 calling inc/HALO_EM_PHYS_PBL_inline.inc
d01 2018-04-05_00:06:00 calling inc/HALO_EM_PHYS_CU_inline.inc
d01 2018-04-05_00:06:00 calling inc/HALO_EM_PHYS_DIFFUSION_inline.inc
d01 2018-04-05_00:06:00 calling inc/HALO_EM_TKE_5_inline.inc
d01 2018-04-05_00:06:00 calling inc/HALO_EM_B_inline.inc
d01 2018-04-05_00:06:00 calling inc/PERIOD_BDY_EM_B_inline.inc
d01 2018-04-05_00:06:00 calling inc/PERIOD_BDY_EM_B_inline.inc
d01 2018-04-05_00:06:00 calling inc/HALO_EM_C_inline.inc
d01 2018-04-05_00:06:00 calling inc/HALO_EM_C2_inline.inc
d01 2018-04-05_00:06:00 calling inc/PERIOD_BDY_EM_B3_inline.inc
d01 2018-04-05_00:06:00 calling inc/HALO_EM_D_inline.inc
d01 2018-04-05_00:06:00 calling inc/PERIOD_EM_DA_inline.inc
d01 2018-04-05_00:06:00 calling inc/HALO_EM_D2_5_inline.inc
d01 2018-04-05_00:06:00 calling inc/PERIOD_BDY_EM_D_inline.inc
d01 2018-04-05_00:06:00 calling inc/PERIOD_BDY_EM_MOIST2_inline.inc
d01 2018-04-05_00:06:00 calling inc/PERIOD_BDY_EM_CHEM2_inline.inc
d01 2018-04-05_00:06:00 calling inc/PERIOD_BDY_EM_TRACER2_inline.inc
d01 2018-04-05_00:06:00 calling inc/PERIOD_BDY_EM_SCALAR2_inline.inc
d01 2018-04-05_00:06:00 calling inc/PERIOD_BDY_EM_TKE_inline.inc
d01 2018-04-05_00:06:00 calling inc/HALO_EM_TKE_5_inline.inc
d01 2018-04-05_00:06:00 calling inc/HALO_EM_MOIST_E_5_inline.inc
d01 2018-04-05_00:06:00 calling inc/HALO_EM_SCALAR_E_5_inline.inc
d01 2018-04-05_00:06:00 calling inc/HALO_EM_A_inline.inc
d01 2018-04-05_00:06:00 calling inc/PERIOD_BDY_EM_A_inline.inc
d01 2018-04-05_00:06:00 calling inc/HALO_EM_B_inline.inc
d01 2018-04-05_00:06:00 calling inc/PERIOD_BDY_EM_B_inline.inc
d01 2018-04-05_00:06:00 calling inc/PERIOD_BDY_EM_B_inline.inc
d01 2018-04-05_00:06:00 calling inc/HALO_EM_C_inline.inc
d01 2018-04-05_00:06:00 calling inc/HALO_EM_C2_inline.inc
d01 2018-04-05_00:06:00 calling inc/PERIOD_BDY_EM_B3_inline.inc
d01 2018-04-05_00:06:00 calling inc/PERIOD_BDY_EM_B_inline.inc
d01 2018-04-05_00:06:00 calling inc/HALO_EM_C_inline.inc
d01 2018-04-05_00:06:00 calling inc/HALO_EM_C2_inline.inc
d01 2018-04-05_00:06:00 calling inc/PERIOD_BDY_EM_B3_inline.inc
d01 2018-04-05_00:06:00 calling inc/HALO_EM_D_inline.inc
d01 2018-04-05_00:06:00 calling inc/PERIOD_EM_DA_inline.inc
d01 2018-04-05_00:06:00 calling inc/HALO_EM_D2_5_inline.inc
d01 2018-04-05_00:06:00 calling inc/PERIOD_BDY_EM_D_inline.inc
d01 2018-04-05_00:06:00 calling inc/PERIOD_BDY_EM_MOIST2_inline.inc
d01 2018-04-05_00:06:00 calling inc/PERIOD_BDY_EM_CHEM2_inline.inc
d01 2018-04-05_00:06:00 calling inc/PERIOD_BDY_EM_TRACER2_inline.inc
d01 2018-04-05_00:06:00 calling inc/PERIOD_BDY_EM_SCALAR2_inline.inc
d01 2018-04-05_00:06:00 calling inc/PERIOD_BDY_EM_TKE_inline.inc
d01 2018-04-05_00:06:00 calling inc/HALO_EM_TKE_7_inline.inc
d01 2018-04-05_00:06:00 calling inc/HALO_EM_MOIST_E_7_inline.inc
d01 2018-04-05_00:06:00 calling inc/HALO_EM_SCALAR_E_7_inline.inc
d01 2018-04-05_00:06:00 calling inc/HALO_EM_A_inline.inc
d01 2018-04-05_00:06:00 calling inc/PERIOD_BDY_EM_A_inline.inc
d01 2018-04-05_00:06:00 calling inc/HALO_EM_B_inline.inc
d01 2018-04-05_00:06:00 calling inc/PERIOD_BDY_EM_B_inline.inc
d01 2018-04-05_00:06:00 calling inc/PERIOD_BDY_EM_B_inline.inc
d01 2018-04-05_00:06:00 calling inc/HALO_EM_C_inline.inc
d01 2018-04-05_00:06:00 calling inc/HALO_EM_C2_inline.inc
d01 2018-04-05_00:06:00 calling inc/PERIOD_BDY_EM_B3_inline.inc
d01 2018-04-05_00:06:00 calling inc/PERIOD_BDY_EM_B_inline.inc
d01 2018-04-05_00:06:00 calling inc/HALO_EM_C_inline.inc
d01 2018-04-05_00:06:00 calling inc/HALO_EM_C2_inline.inc
d01 2018-04-05_00:06:00 calling inc/PERIOD_BDY_EM_B3_inline.inc
d01 2018-04-05_00:06:00 calling inc/PERIOD_BDY_EM_B_inline.inc
d01 2018-04-05_00:06:00 calling inc/HALO_EM_C_inline.inc
d01 2018-04-05_00:06:00 calling inc/HALO_EM_C2_inline.inc
d01 2018-04-05_00:06:00 calling inc/PERIOD_BDY_EM_B3_inline.inc
d01 2018-04-05_00:06:00 calling inc/PERIOD_BDY_EM_B_inline.inc
d01 2018-04-05_00:06:00 calling inc/HALO_EM_C_inline.inc
d01 2018-04-05_00:06:00 calling inc/HALO_EM_C2_inline.inc
d01 2018-04-05_00:06:00 calling inc/PERIOD_BDY_EM_B3_inline.inc
d01 2018-04-05_00:06:00 calling inc/HALO_EM_MOIST_OLD_E_7_inline.inc
d01 2018-04-05_00:06:00 calling inc/PERIOD_BDY_EM_MOIST_OLD_inline.inc
d01 2018-04-05_00:06:00 calling inc/HALO_EM_SCALAR_OLD_E_7_inline.inc
d01 2018-04-05_00:06:00 calling inc/PERIOD_BDY_EM_SCALAR_OLD_inline.inc
d01 2018-04-05_00:06:00 calling inc/HALO_EM_CHEM_OLD_E_7_inline.inc
d01 2018-04-05_00:06:00 calling inc/PERIOD_BDY_EM_CHEM_OLD_inline.inc
d01 2018-04-05_00:06:00 calling inc/HALO_EM_TRACER_OLD_E_7_inline.inc
d01 2018-04-05_00:06:00 calling inc/PERIOD_BDY_EM_TRACER_OLD_inline.inc
d01 2018-04-05_00:06:00 calling inc/HALO_EM_D_inline.inc
d01 2018-04-05_00:06:00 calling inc/PERIOD_EM_DA_inline.inc
d01 2018-04-05_00:06:00 calling inc/HALO_EM_SBM_inline.inc
d01 2018-04-05_00:06:00 microphysics_driver: calling thompson
d01 2018-04-05_00:06:00 calling inc/HALO_EM_D3_5_inline.inc
d01 2018-04-05_00:06:00 calling inc/PERIOD_BDY_EM_D3_inline.inc
d01 2018-04-05_00:06:00 calling inc/PERIOD_BDY_EM_MOIST_inline.inc
d01 2018-04-05_00:06:00 calling inc/PERIOD_BDY_EM_CHEM_inline.inc
d01 2018-04-05_00:06:00 calling inc/PERIOD_BDY_EM_TRACER_inline.inc
d01 2018-04-05_00:06:00 calling inc/PERIOD_BDY_EM_SCALAR_inline.inc
d01 2018-04-05_00:06:00 calling inc/HALO_EM_C_inline.inc
d01 2018-04-05_00:06:00 calling inc/PERIOD_BDY_EM_E_inline.inc
d01 2018-04-05_00:06:00  call set_w_surface
d01 2018-04-05_00:06:00 calling inc/HALO_EM_PHYS_W_inline.inc
d01 2018-04-05_00:06:00 calling inc/HALO_EM_PHYS_HCW_inline.inc
d01 2018-04-05_00:06:00 --> TOP OF AFTER ALL RK STEPS
d01 2018-04-05_00:06:00 --> CALLING DIAGNOSTICS DRIVER
d01 2018-04-05_00:06:00 --> TOP OF DIAGNOSTICS PACKAGE
d01 2018-04-05_00:06:00 --> CALL DIAGNOSTICS PACKAGE: NWP DIAGNOSTICS
d01 2018-04-05_00:06:00 calling inc/HALO_EM_E_5_inline.inc
d01 2018-04-05_00:06:00 calling inc/HALO_EM_MOIST_E_5_inline.inc
d01 2018-04-05_00:06:00 calling inc/HALO_EM_SCALAR_E_5_inline.inc
d01 2018-04-05_00:09:00 module_integrate: back from solve interface
Timing for main: time 2018-04-05_00:09:00 on domain   1:    0.48432 elapsed seconds
d01 2018-04-05_00:09:00 module_integrate: calling solve interface
d01 2018-04-05_00:09:00  grid spacing, dt, time_step_sound=   30000.0000       180.000000               4
d01 2018-04-05_00:09:00 calling inc/HALO_EM_A_inline.inc
d01 2018-04-05_00:09:00 calling inc/PERIOD_BDY_EM_A_inline.inc
d01 2018-04-05_00:09:00 calling inc/HALO_EM_PHYS_A_inline.inc
d01 2018-04-05_00:09:00 Top of Radiation Driver
d01 2018-04-05_00:09:00 calling inc/HALO_PWP_inline.inc
d01 2018-04-05_00:09:00 in MYJSFC
d01 2018-04-05_00:09:00 in NOAH DRV
d01 2018-04-05_00:09:00 in MYJPBL
d01 2018-04-05_00:09:00 in cu_tiedtke
d01 2018-04-05_00:09:00 calling inc/HALO_EM_FDDA_SFC_inline.inc
d01 2018-04-05_00:09:00 calling inc/HALO_EM_TKE_C_inline.inc
d01 2018-04-05_00:09:00 calling inc/PERIOD_BDY_EM_A1_inline.inc
d01 2018-04-05_00:09:00 calling inc/HALO_EM_HELICITY_inline.inc
d01 2018-04-05_00:09:00 calling inc/HALO_EM_TKE_D_inline.inc
d01 2018-04-05_00:09:00 calling inc/HALO_EM_TKE_E_inline.inc
d01 2018-04-05_00:09:00 calling inc/PERIOD_BDY_EM_PHY_BC_inline.inc
d01 2018-04-05_00:09:00 calling inc/PERIOD_BDY_EM_CHEM_inline.inc
d01 2018-04-05_00:09:00 calling inc/HALO_EM_PHYS_PBL_inline.inc
d01 2018-04-05_00:09:00 calling inc/HALO_EM_PHYS_CU_inline.inc
d01 2018-04-05_00:09:00 calling inc/HALO_EM_PHYS_DIFFUSION_inline.inc
d01 2018-04-05_00:09:00 calling inc/HALO_EM_TKE_5_inline.inc
d01 2018-04-05_00:09:00 calling inc/HALO_EM_B_inline.inc
d01 2018-04-05_00:09:00 calling inc/PERIOD_BDY_EM_B_inline.inc
d01 2018-04-05_00:09:00 calling inc/PERIOD_BDY_EM_B_inline.inc
d01 2018-04-05_00:09:00 calling inc/HALO_EM_C_inline.inc
d01 2018-04-05_00:09:00 calling inc/HALO_EM_C2_inline.inc
d01 2018-04-05_00:09:00 calling inc/PERIOD_BDY_EM_B3_inline.inc
d01 2018-04-05_00:09:00 calling inc/HALO_EM_D_inline.inc
d01 2018-04-05_00:09:00 calling inc/PERIOD_EM_DA_inline.inc
d01 2018-04-05_00:09:00 calling inc/HALO_EM_D2_5_inline.inc
d01 2018-04-05_00:09:00 calling inc/PERIOD_BDY_EM_D_inline.inc
d01 2018-04-05_00:09:00 calling inc/PERIOD_BDY_EM_MOIST2_inline.inc
d01 2018-04-05_00:09:00 calling inc/PERIOD_BDY_EM_CHEM2_inline.inc
d01 2018-04-05_00:09:00 calling inc/PERIOD_BDY_EM_TRACER2_inline.inc
d01 2018-04-05_00:09:00 calling inc/PERIOD_BDY_EM_SCALAR2_inline.inc
d01 2018-04-05_00:09:00 calling inc/PERIOD_BDY_EM_TKE_inline.inc
d01 2018-04-05_00:09:00 calling inc/HALO_EM_TKE_5_inline.inc
d01 2018-04-05_00:09:00 calling inc/HALO_EM_MOIST_E_5_inline.inc
d01 2018-04-05_00:09:00 calling inc/HALO_EM_SCALAR_E_5_inline.inc
d01 2018-04-05_00:09:00 calling inc/HALO_EM_A_inline.inc
d01 2018-04-05_00:09:00 calling inc/PERIOD_BDY_EM_A_inline.inc
d01 2018-04-05_00:09:00 calling inc/HALO_EM_B_inline.inc
d01 2018-04-05_00:09:00 calling inc/PERIOD_BDY_EM_B_inline.inc
d01 2018-04-05_00:09:00 calling inc/PERIOD_BDY_EM_B_inline.inc
d01 2018-04-05_00:09:00 calling inc/HALO_EM_C_inline.inc
d01 2018-04-05_00:09:00 calling inc/HALO_EM_C2_inline.inc
d01 2018-04-05_00:09:00 calling inc/PERIOD_BDY_EM_B3_inline.inc
d01 2018-04-05_00:09:00 calling inc/PERIOD_BDY_EM_B_inline.inc
d01 2018-04-05_00:09:00 calling inc/HALO_EM_C_inline.inc
d01 2018-04-05_00:09:00 calling inc/HALO_EM_C2_inline.inc
d01 2018-04-05_00:09:00 calling inc/PERIOD_BDY_EM_B3_inline.inc
d01 2018-04-05_00:09:00 calling inc/HALO_EM_D_inline.inc
d01 2018-04-05_00:09:00 calling inc/PERIOD_EM_DA_inline.inc
d01 2018-04-05_00:09:00 calling inc/HALO_EM_D2_5_inline.inc
d01 2018-04-05_00:09:00 calling inc/PERIOD_BDY_EM_D_inline.inc
d01 2018-04-05_00:09:00 calling inc/PERIOD_BDY_EM_MOIST2_inline.inc
d01 2018-04-05_00:09:00 calling inc/PERIOD_BDY_EM_CHEM2_inline.inc
d01 2018-04-05_00:09:00 calling inc/PERIOD_BDY_EM_TRACER2_inline.inc
d01 2018-04-05_00:09:00 calling inc/PERIOD_BDY_EM_SCALAR2_inline.inc
d01 2018-04-05_00:09:00 calling inc/PERIOD_BDY_EM_TKE_inline.inc
d01 2018-04-05_00:09:00 calling inc/HALO_EM_TKE_7_inline.inc
d01 2018-04-05_00:09:00 calling inc/HALO_EM_MOIST_E_7_inline.inc
d01 2018-04-05_00:09:00 calling inc/HALO_EM_SCALAR_E_7_inline.inc
d01 2018-04-05_00:09:00 calling inc/HALO_EM_A_inline.inc
d01 2018-04-05_00:09:00 calling inc/PERIOD_BDY_EM_A_inline.inc
d01 2018-04-05_00:09:00 calling inc/HALO_EM_B_inline.inc
d01 2018-04-05_00:09:00 calling inc/PERIOD_BDY_EM_B_inline.inc
d01 2018-04-05_00:09:00 calling inc/PERIOD_BDY_EM_B_inline.inc
d01 2018-04-05_00:09:00 calling inc/HALO_EM_C_inline.inc
d01 2018-04-05_00:09:00 calling inc/HALO_EM_C2_inline.inc
d01 2018-04-05_00:09:00 calling inc/PERIOD_BDY_EM_B3_inline.inc
d01 2018-04-05_00:09:00 calling inc/PERIOD_BDY_EM_B_inline.inc
d01 2018-04-05_00:09:00 calling inc/HALO_EM_C_inline.inc
d01 2018-04-05_00:09:00 calling inc/HALO_EM_C2_inline.inc
d01 2018-04-05_00:09:00 calling inc/PERIOD_BDY_EM_B3_inline.inc
d01 2018-04-05_00:09:00 calling inc/PERIOD_BDY_EM_B_inline.inc
d01 2018-04-05_00:09:00 calling inc/HALO_EM_C_inline.inc
d01 2018-04-05_00:09:00 calling inc/HALO_EM_C2_inline.inc
d01 2018-04-05_00:09:00 calling inc/PERIOD_BDY_EM_B3_inline.inc
d01 2018-04-05_00:09:00 calling inc/PERIOD_BDY_EM_B_inline.inc
d01 2018-04-05_00:09:00 calling inc/HALO_EM_C_inline.inc
d01 2018-04-05_00:09:00 calling inc/HALO_EM_C2_inline.inc
d01 2018-04-05_00:09:00 calling inc/PERIOD_BDY_EM_B3_inline.inc
d01 2018-04-05_00:09:00 calling inc/HALO_EM_MOIST_OLD_E_7_inline.inc
d01 2018-04-05_00:09:00 calling inc/PERIOD_BDY_EM_MOIST_OLD_inline.inc
d01 2018-04-05_00:09:00 calling inc/HALO_EM_SCALAR_OLD_E_7_inline.inc
d01 2018-04-05_00:09:00 calling inc/PERIOD_BDY_EM_SCALAR_OLD_inline.inc
d01 2018-04-05_00:09:00 calling inc/HALO_EM_CHEM_OLD_E_7_inline.inc
d01 2018-04-05_00:09:00 calling inc/PERIOD_BDY_EM_CHEM_OLD_inline.inc
d01 2018-04-05_00:09:00 calling inc/HALO_EM_TRACER_OLD_E_7_inline.inc
d01 2018-04-05_00:09:00 calling inc/PERIOD_BDY_EM_TRACER_OLD_inline.inc
d01 2018-04-05_00:09:00 calling inc/HALO_EM_D_inline.inc
d01 2018-04-05_00:09:00 calling inc/PERIOD_EM_DA_inline.inc
d01 2018-04-05_00:09:00 calling inc/HALO_EM_SBM_inline.inc
d01 2018-04-05_00:09:00 microphysics_driver: calling thompson
d01 2018-04-05_00:09:00 calling inc/HALO_EM_D3_5_inline.inc
d01 2018-04-05_00:09:00 calling inc/PERIOD_BDY_EM_D3_inline.inc
d01 2018-04-05_00:09:00 calling inc/PERIOD_BDY_EM_MOIST_inline.inc
d01 2018-04-05_00:09:00 calling inc/PERIOD_BDY_EM_CHEM_inline.inc
d01 2018-04-05_00:09:00 calling inc/PERIOD_BDY_EM_TRACER_inline.inc
d01 2018-04-05_00:09:00 calling inc/PERIOD_BDY_EM_SCALAR_inline.inc
d01 2018-04-05_00:09:00 calling inc/HALO_EM_C_inline.inc
d01 2018-04-05_00:09:00 calling inc/PERIOD_BDY_EM_E_inline.inc
d01 2018-04-05_00:09:00  call set_w_surface
d01 2018-04-05_00:09:00 calling inc/HALO_EM_PHYS_W_inline.inc
d01 2018-04-05_00:09:00 calling inc/HALO_EM_PHYS_HCW_inline.inc
d01 2018-04-05_00:09:00 --> TOP OF AFTER ALL RK STEPS
d01 2018-04-05_00:09:00 --> CALLING DIAGNOSTICS DRIVER
d01 2018-04-05_00:09:00 --> TOP OF DIAGNOSTICS PACKAGE
d01 2018-04-05_00:09:00 --> CALL DIAGNOSTICS PACKAGE: NWP DIAGNOSTICS
d01 2018-04-05_00:09:00 calling inc/HALO_EM_E_5_inline.inc
d01 2018-04-05_00:09:00 calling inc/HALO_EM_MOIST_E_5_inline.inc
d01 2018-04-05_00:09:00 calling inc/HALO_EM_SCALAR_E_5_inline.inc
d01 2018-04-05_00:12:00 module_integrate: back from solve interface
Timing for main: time 2018-04-05_00:12:00 on domain   1:    0.45984 elapsed seconds
d01 2018-04-05_00:12:00 module_integrate: calling solve interface
d01 2018-04-05_00:12:00  grid spacing, dt, time_step_sound=   30000.0000       180.000000               4
d01 2018-04-05_00:12:00 calling inc/HALO_EM_A_inline.inc
d01 2018-04-05_00:12:00 calling inc/PERIOD_BDY_EM_A_inline.inc
d01 2018-04-05_00:12:00 calling inc/HALO_EM_PHYS_A_inline.inc
d01 2018-04-05_00:12:00 Top of Radiation Driver
d01 2018-04-05_00:12:00 calling inc/HALO_PWP_inline.inc
d01 2018-04-05_00:12:00 in MYJSFC
d01 2018-04-05_00:12:00 in NOAH DRV
d01 2018-04-05_00:12:00 in MYJPBL
d01 2018-04-05_00:12:00 calling inc/HALO_EM_FDDA_SFC_inline.inc
d01 2018-04-05_00:12:00 calling inc/HALO_EM_TKE_C_inline.inc
d01 2018-04-05_00:12:00 calling inc/PERIOD_BDY_EM_A1_inline.inc
d01 2018-04-05_00:12:00 calling inc/HALO_EM_HELICITY_inline.inc
d01 2018-04-05_00:12:00 calling inc/HALO_EM_TKE_D_inline.inc
d01 2018-04-05_00:12:00 calling inc/HALO_EM_TKE_E_inline.inc
d01 2018-04-05_00:12:00 calling inc/PERIOD_BDY_EM_PHY_BC_inline.inc
d01 2018-04-05_00:12:00 calling inc/PERIOD_BDY_EM_CHEM_inline.inc
d01 2018-04-05_00:12:00 calling inc/HALO_EM_PHYS_PBL_inline.inc
d01 2018-04-05_00:12:00 calling inc/HALO_EM_PHYS_CU_inline.inc
d01 2018-04-05_00:12:00 calling inc/HALO_EM_PHYS_DIFFUSION_inline.inc
d01 2018-04-05_00:12:00 calling inc/HALO_EM_TKE_5_inline.inc
d01 2018-04-05_00:12:00 calling inc/HALO_EM_B_inline.inc
d01 2018-04-05_00:12:00 calling inc/PERIOD_BDY_EM_B_inline.inc
d01 2018-04-05_00:12:00 calling inc/PERIOD_BDY_EM_B_inline.inc
d01 2018-04-05_00:12:00 calling inc/HALO_EM_C_inline.inc
d01 2018-04-05_00:12:00 calling inc/HALO_EM_C2_inline.inc
d01 2018-04-05_00:12:00 calling inc/PERIOD_BDY_EM_B3_inline.inc
d01 2018-04-05_00:12:00 calling inc/HALO_EM_D_inline.inc
d01 2018-04-05_00:12:00 calling inc/PERIOD_EM_DA_inline.inc
d01 2018-04-05_00:12:00 calling inc/HALO_EM_D2_5_inline.inc
d01 2018-04-05_00:12:00 calling inc/PERIOD_BDY_EM_D_inline.inc
d01 2018-04-05_00:12:00 calling inc/PERIOD_BDY_EM_MOIST2_inline.inc
d01 2018-04-05_00:12:00 calling inc/PERIOD_BDY_EM_CHEM2_inline.inc
d01 2018-04-05_00:12:00 calling inc/PERIOD_BDY_EM_TRACER2_inline.inc
d01 2018-04-05_00:12:00 calling inc/PERIOD_BDY_EM_SCALAR2_inline.inc
d01 2018-04-05_00:12:00 calling inc/PERIOD_BDY_EM_TKE_inline.inc
d01 2018-04-05_00:12:00 calling inc/HALO_EM_TKE_5_inline.inc
d01 2018-04-05_00:12:00 calling inc/HALO_EM_MOIST_E_5_inline.inc
d01 2018-04-05_00:12:00 calling inc/HALO_EM_SCALAR_E_5_inline.inc
d01 2018-04-05_00:12:00 calling inc/HALO_EM_A_inline.inc
d01 2018-04-05_00:12:00 calling inc/PERIOD_BDY_EM_A_inline.inc
d01 2018-04-05_00:12:00 calling inc/HALO_EM_B_inline.inc
d01 2018-04-05_00:12:00 calling inc/PERIOD_BDY_EM_B_inline.inc
d01 2018-04-05_00:12:00 calling inc/PERIOD_BDY_EM_B_inline.inc
d01 2018-04-05_00:12:00 calling inc/HALO_EM_C_inline.inc
d01 2018-04-05_00:12:00 calling inc/HALO_EM_C2_inline.inc
d01 2018-04-05_00:12:00 calling inc/PERIOD_BDY_EM_B3_inline.inc
d01 2018-04-05_00:12:00 calling inc/PERIOD_BDY_EM_B_inline.inc
d01 2018-04-05_00:12:00 calling inc/HALO_EM_C_inline.inc
d01 2018-04-05_00:12:00 calling inc/HALO_EM_C2_inline.inc
d01 2018-04-05_00:12:00 calling inc/PERIOD_BDY_EM_B3_inline.inc
d01 2018-04-05_00:12:00 calling inc/HALO_EM_D_inline.inc
d01 2018-04-05_00:12:00 calling inc/PERIOD_EM_DA_inline.inc
d01 2018-04-05_00:12:00 calling inc/HALO_EM_D2_5_inline.inc
d01 2018-04-05_00:12:00 calling inc/PERIOD_BDY_EM_D_inline.inc
d01 2018-04-05_00:12:00 calling inc/PERIOD_BDY_EM_MOIST2_inline.inc
d01 2018-04-05_00:12:00 calling inc/PERIOD_BDY_EM_CHEM2_inline.inc
d01 2018-04-05_00:12:00 calling inc/PERIOD_BDY_EM_TRACER2_inline.inc
d01 2018-04-05_00:12:00 calling inc/PERIOD_BDY_EM_SCALAR2_inline.inc
d01 2018-04-05_00:12:00 calling inc/PERIOD_BDY_EM_TKE_inline.inc
d01 2018-04-05_00:12:00 calling inc/HALO_EM_TKE_7_inline.inc
d01 2018-04-05_00:12:00 calling inc/HALO_EM_MOIST_E_7_inline.inc
d01 2018-04-05_00:12:00 calling inc/HALO_EM_SCALAR_E_7_inline.inc
d01 2018-04-05_00:12:00 calling inc/HALO_EM_A_inline.inc
d01 2018-04-05_00:12:00 calling inc/PERIOD_BDY_EM_A_inline.inc
d01 2018-04-05_00:12:00 calling inc/HALO_EM_B_inline.inc
d01 2018-04-05_00:12:00 calling inc/PERIOD_BDY_EM_B_inline.inc
d01 2018-04-05_00:12:00 calling inc/PERIOD_BDY_EM_B_inline.inc
d01 2018-04-05_00:12:00 calling inc/HALO_EM_C_inline.inc
d01 2018-04-05_00:12:00 calling inc/HALO_EM_C2_inline.inc
d01 2018-04-05_00:12:00 calling inc/PERIOD_BDY_EM_B3_inline.inc
d01 2018-04-05_00:12:00 calling inc/PERIOD_BDY_EM_B_inline.inc
d01 2018-04-05_00:12:00 calling inc/HALO_EM_C_inline.inc
d01 2018-04-05_00:12:00 calling inc/HALO_EM_C2_inline.inc
d01 2018-04-05_00:12:00 calling inc/PERIOD_BDY_EM_B3_inline.inc
d01 2018-04-05_00:12:00 calling inc/PERIOD_BDY_EM_B_inline.inc
d01 2018-04-05_00:12:00 calling inc/HALO_EM_C_inline.inc
d01 2018-04-05_00:12:00 calling inc/HALO_EM_C2_inline.inc
d01 2018-04-05_00:12:00 calling inc/PERIOD_BDY_EM_B3_inline.inc
d01 2018-04-05_00:12:00 calling inc/PERIOD_BDY_EM_B_inline.inc
d01 2018-04-05_00:12:00 calling inc/HALO_EM_C_inline.inc
d01 2018-04-05_00:12:00 calling inc/HALO_EM_C2_inline.inc
d01 2018-04-05_00:12:00 calling inc/PERIOD_BDY_EM_B3_inline.inc
d01 2018-04-05_00:12:00 calling inc/HALO_EM_MOIST_OLD_E_7_inline.inc
d01 2018-04-05_00:12:00 calling inc/PERIOD_BDY_EM_MOIST_OLD_inline.inc
d01 2018-04-05_00:12:00 calling inc/HALO_EM_SCALAR_OLD_E_7_inline.inc
d01 2018-04-05_00:12:00 calling inc/PERIOD_BDY_EM_SCALAR_OLD_inline.inc
d01 2018-04-05_00:12:00 calling inc/HALO_EM_CHEM_OLD_E_7_inline.inc
d01 2018-04-05_00:12:00 calling inc/PERIOD_BDY_EM_CHEM_OLD_inline.inc
d01 2018-04-05_00:12:00 calling inc/HALO_EM_TRACER_OLD_E_7_inline.inc
d01 2018-04-05_00:12:00 calling inc/PERIOD_BDY_EM_TRACER_OLD_inline.inc
d01 2018-04-05_00:12:00 calling inc/HALO_EM_D_inline.inc
d01 2018-04-05_00:12:00 calling inc/PERIOD_EM_DA_inline.inc
d01 2018-04-05_00:12:00 calling inc/HALO_EM_SBM_inline.inc
d01 2018-04-05_00:12:00 microphysics_driver: calling thompson
d01 2018-04-05_00:12:00 calling inc/HALO_EM_D3_5_inline.inc
d01 2018-04-05_00:12:00 calling inc/PERIOD_BDY_EM_D3_inline.inc
d01 2018-04-05_00:12:00 calling inc/PERIOD_BDY_EM_MOIST_inline.inc
d01 2018-04-05_00:12:00 calling inc/PERIOD_BDY_EM_CHEM_inline.inc
d01 2018-04-05_00:12:00 calling inc/PERIOD_BDY_EM_TRACER_inline.inc
d01 2018-04-05_00:12:00 calling inc/PERIOD_BDY_EM_SCALAR_inline.inc
d01 2018-04-05_00:12:00 calling inc/HALO_EM_C_inline.inc
d01 2018-04-05_00:12:00 calling inc/PERIOD_BDY_EM_E_inline.inc
d01 2018-04-05_00:12:00  call set_w_surface
d01 2018-04-05_00:12:00 calling inc/HALO_EM_PHYS_W_inline.inc
d01 2018-04-05_00:12:00 calling inc/HALO_EM_PHYS_HCW_inline.inc
d01 2018-04-05_00:12:00 --> TOP OF AFTER ALL RK STEPS
d01 2018-04-05_00:12:00 --> CALLING DIAGNOSTICS DRIVER
d01 2018-04-05_00:12:00 --> TOP OF DIAGNOSTICS PACKAGE
d01 2018-04-05_00:12:00 --> CALL DIAGNOSTICS PACKAGE: NWP DIAGNOSTICS
d01 2018-04-05_00:12:00 calling inc/HALO_EM_E_5_inline.inc
d01 2018-04-05_00:12:00 calling inc/HALO_EM_MOIST_E_5_inline.inc
d01 2018-04-05_00:12:00 calling inc/HALO_EM_SCALAR_E_5_inline.inc
d01 2018-04-05_00:15:00 module_integrate: back from solve interface
Timing for main: time 2018-04-05_00:15:00 on domain   1:    0.58396 elapsed seconds
d01 2018-04-05_00:15:00 module_integrate: calling solve interface
d01 2018-04-05_00:15:00  grid spacing, dt, time_step_sound=   30000.0000       180.000000               4
d01 2018-04-05_00:15:00 calling inc/HALO_EM_A_inline.inc
d01 2018-04-05_00:15:00 calling inc/PERIOD_BDY_EM_A_inline.inc
d01 2018-04-05_00:15:00 calling inc/HALO_EM_PHYS_A_inline.inc
d01 2018-04-05_00:15:00 Top of Radiation Driver
d01 2018-04-05_00:15:00 calling inc/HALO_PWP_inline.inc
d01 2018-04-05_00:15:00 in MYJSFC
d01 2018-04-05_00:15:00 in NOAH DRV
d01 2018-04-05_00:15:00 in MYJPBL
d01 2018-04-05_00:15:00 in cu_tiedtke
d01 2018-04-05_00:15:00 calling inc/HALO_EM_FDDA_SFC_inline.inc
d01 2018-04-05_00:15:00 calling inc/HALO_EM_TKE_C_inline.inc
d01 2018-04-05_00:15:00 calling inc/PERIOD_BDY_EM_A1_inline.inc
d01 2018-04-05_00:15:00 calling inc/HALO_EM_HELICITY_inline.inc
d01 2018-04-05_00:15:00 calling inc/HALO_EM_TKE_D_inline.inc
d01 2018-04-05_00:15:00 calling inc/HALO_EM_TKE_E_inline.inc
d01 2018-04-05_00:15:00 calling inc/PERIOD_BDY_EM_PHY_BC_inline.inc
d01 2018-04-05_00:15:00 calling inc/PERIOD_BDY_EM_CHEM_inline.inc
d01 2018-04-05_00:15:00 calling inc/HALO_EM_PHYS_PBL_inline.inc
d01 2018-04-05_00:15:00 calling inc/HALO_EM_PHYS_CU_inline.inc
d01 2018-04-05_00:15:00 calling inc/HALO_EM_PHYS_DIFFUSION_inline.inc
d01 2018-04-05_00:15:00 calling inc/HALO_EM_TKE_5_inline.inc
d01 2018-04-05_00:15:00 calling inc/HALO_EM_B_inline.inc
d01 2018-04-05_00:15:00 calling inc/PERIOD_BDY_EM_B_inline.inc
d01 2018-04-05_00:15:00 calling inc/PERIOD_BDY_EM_B_inline.inc
d01 2018-04-05_00:15:00 calling inc/HALO_EM_C_inline.inc
d01 2018-04-05_00:15:00 calling inc/HALO_EM_C2_inline.inc
d01 2018-04-05_00:15:00 calling inc/PERIOD_BDY_EM_B3_inline.inc
d01 2018-04-05_00:15:00 calling inc/HALO_EM_D_inline.inc
d01 2018-04-05_00:15:00 calling inc/PERIOD_EM_DA_inline.inc
d01 2018-04-05_00:15:00 calling inc/HALO_EM_D2_5_inline.inc
d01 2018-04-05_00:15:00 calling inc/PERIOD_BDY_EM_D_inline.inc
d01 2018-04-05_00:15:00 calling inc/PERIOD_BDY_EM_MOIST2_inline.inc
d01 2018-04-05_00:15:00 calling inc/PERIOD_BDY_EM_CHEM2_inline.inc
d01 2018-04-05_00:15:00 calling inc/PERIOD_BDY_EM_TRACER2_inline.inc
d01 2018-04-05_00:15:00 calling inc/PERIOD_BDY_EM_SCALAR2_inline.inc
d01 2018-04-05_00:15:00 calling inc/PERIOD_BDY_EM_TKE_inline.inc
d01 2018-04-05_00:15:00 calling inc/HALO_EM_TKE_5_inline.inc
d01 2018-04-05_00:15:00 calling inc/HALO_EM_MOIST_E_5_inline.inc
d01 2018-04-05_00:15:00 calling inc/HALO_EM_SCALAR_E_5_inline.inc
d01 2018-04-05_00:15:00 calling inc/HALO_EM_A_inline.inc
d01 2018-04-05_00:15:00 calling inc/PERIOD_BDY_EM_A_inline.inc
d01 2018-04-05_00:15:00 calling inc/HALO_EM_B_inline.inc
d01 2018-04-05_00:15:00 calling inc/PERIOD_BDY_EM_B_inline.inc
d01 2018-04-05_00:15:00 calling inc/PERIOD_BDY_EM_B_inline.inc
d01 2018-04-05_00:15:00 calling inc/HALO_EM_C_inline.inc
d01 2018-04-05_00:15:00 calling inc/HALO_EM_C2_inline.inc
d01 2018-04-05_00:15:00 calling inc/PERIOD_BDY_EM_B3_inline.inc
d01 2018-04-05_00:15:00 calling inc/PERIOD_BDY_EM_B_inline.inc
d01 2018-04-05_00:15:00 calling inc/HALO_EM_C_inline.inc
d01 2018-04-05_00:15:00 calling inc/HALO_EM_C2_inline.inc
d01 2018-04-05_00:15:00 calling inc/PERIOD_BDY_EM_B3_inline.inc
d01 2018-04-05_00:15:00 calling inc/HALO_EM_D_inline.inc
d01 2018-04-05_00:15:00 calling inc/PERIOD_EM_DA_inline.inc
d01 2018-04-05_00:15:00 calling inc/HALO_EM_D2_5_inline.inc
d01 2018-04-05_00:15:00 calling inc/PERIOD_BDY_EM_D_inline.inc
d01 2018-04-05_00:15:00 calling inc/PERIOD_BDY_EM_MOIST2_inline.inc
d01 2018-04-05_00:15:00 calling inc/PERIOD_BDY_EM_CHEM2_inline.inc
d01 2018-04-05_00:15:00 calling inc/PERIOD_BDY_EM_TRACER2_inline.inc
d01 2018-04-05_00:15:00 calling inc/PERIOD_BDY_EM_SCALAR2_inline.inc
d01 2018-04-05_00:15:00 calling inc/PERIOD_BDY_EM_TKE_inline.inc
d01 2018-04-05_00:15:00 calling inc/HALO_EM_TKE_7_inline.inc
d01 2018-04-05_00:15:00 calling inc/HALO_EM_MOIST_E_7_inline.inc
d01 2018-04-05_00:15:00 calling inc/HALO_EM_SCALAR_E_7_inline.inc
d01 2018-04-05_00:15:00 calling inc/HALO_EM_A_inline.inc
d01 2018-04-05_00:15:00 calling inc/PERIOD_BDY_EM_A_inline.inc
d01 2018-04-05_00:15:00 calling inc/HALO_EM_B_inline.inc
d01 2018-04-05_00:15:00 calling inc/PERIOD_BDY_EM_B_inline.inc
d01 2018-04-05_00:15:00 calling inc/PERIOD_BDY_EM_B_inline.inc
d01 2018-04-05_00:15:00 calling inc/HALO_EM_C_inline.inc
d01 2018-04-05_00:15:00 calling inc/HALO_EM_C2_inline.inc
d01 2018-04-05_00:15:00 calling inc/PERIOD_BDY_EM_B3_inline.inc
d01 2018-04-05_00:15:00 calling inc/PERIOD_BDY_EM_B_inline.inc
d01 2018-04-05_00:15:00 calling inc/HALO_EM_C_inline.inc
d01 2018-04-05_00:15:00 calling inc/HALO_EM_C2_inline.inc
d01 2018-04-05_00:15:00 calling inc/PERIOD_BDY_EM_B3_inline.inc
d01 2018-04-05_00:15:00 calling inc/PERIOD_BDY_EM_B_inline.inc
d01 2018-04-05_00:15:00 calling inc/HALO_EM_C_inline.inc
d01 2018-04-05_00:15:00 calling inc/HALO_EM_C2_inline.inc
d01 2018-04-05_00:15:00 calling inc/PERIOD_BDY_EM_B3_inline.inc
d01 2018-04-05_00:15:00 calling inc/PERIOD_BDY_EM_B_inline.inc
d01 2018-04-05_00:15:00 calling inc/HALO_EM_C_inline.inc
d01 2018-04-05_00:15:00 calling inc/HALO_EM_C2_inline.inc
d01 2018-04-05_00:15:00 calling inc/PERIOD_BDY_EM_B3_inline.inc
d01 2018-04-05_00:15:00 calling inc/HALO_EM_MOIST_OLD_E_7_inline.inc
d01 2018-04-05_00:15:00 calling inc/PERIOD_BDY_EM_MOIST_OLD_inline.inc
d01 2018-04-05_00:15:00 calling inc/HALO_EM_SCALAR_OLD_E_7_inline.inc
d01 2018-04-05_00:15:00 calling inc/PERIOD_BDY_EM_SCALAR_OLD_inline.inc
d01 2018-04-05_00:15:00 calling inc/HALO_EM_CHEM_OLD_E_7_inline.inc
d01 2018-04-05_00:15:00 calling inc/PERIOD_BDY_EM_CHEM_OLD_inline.inc
d01 2018-04-05_00:15:00 calling inc/HALO_EM_TRACER_OLD_E_7_inline.inc
d01 2018-04-05_00:15:00 calling inc/PERIOD_BDY_EM_TRACER_OLD_inline.inc
d01 2018-04-05_00:15:00 calling inc/HALO_EM_D_inline.inc
d01 2018-04-05_00:15:00 calling inc/PERIOD_EM_DA_inline.inc
d01 2018-04-05_00:15:00 calling inc/HALO_EM_SBM_inline.inc
d01 2018-04-05_00:15:00 microphysics_driver: calling thompson
d01 2018-04-05_00:15:00 calling inc/HALO_EM_D3_5_inline.inc
d01 2018-04-05_00:15:00 calling inc/PERIOD_BDY_EM_D3_inline.inc
d01 2018-04-05_00:15:00 calling inc/PERIOD_BDY_EM_MOIST_inline.inc
d01 2018-04-05_00:15:00 calling inc/PERIOD_BDY_EM_CHEM_inline.inc
d01 2018-04-05_00:15:00 calling inc/PERIOD_BDY_EM_TRACER_inline.inc
d01 2018-04-05_00:15:00 calling inc/PERIOD_BDY_EM_SCALAR_inline.inc
d01 2018-04-05_00:15:00 calling inc/HALO_EM_C_inline.inc
d01 2018-04-05_00:15:00 calling inc/PERIOD_BDY_EM_E_inline.inc
d01 2018-04-05_00:15:00  call set_w_surface
d01 2018-04-05_00:15:00 calling inc/HALO_EM_PHYS_W_inline.inc
d01 2018-04-05_00:15:00 calling inc/HALO_EM_PHYS_HCW_inline.inc
d01 2018-04-05_00:15:00 --> TOP OF AFTER ALL RK STEPS
d01 2018-04-05_00:15:00 --> CALLING DIAGNOSTICS DRIVER
d01 2018-04-05_00:15:00 --> TOP OF DIAGNOSTICS PACKAGE
d01 2018-04-05_00:15:00 --> CALL DIAGNOSTICS PACKAGE: NWP DIAGNOSTICS
d01 2018-04-05_00:15:00 calling inc/HALO_EM_E_5_inline.inc
d01 2018-04-05_00:15:00 calling inc/HALO_EM_MOIST_E_5_inline.inc
d01 2018-04-05_00:15:00 calling inc/HALO_EM_SCALAR_E_5_inline.inc
d01 2018-04-05_00:18:00 module_integrate: back from solve interface
Timing for main: time 2018-04-05_00:18:00 on domain   1:    0.50814 elapsed seconds
d01 2018-04-05_00:18:00 module_integrate: calling solve interface
d01 2018-04-05_00:18:00  grid spacing, dt, time_step_sound=   30000.0000       180.000000               4
d01 2018-04-05_00:18:00 calling inc/HALO_EM_A_inline.inc
d01 2018-04-05_00:18:00 calling inc/PERIOD_BDY_EM_A_inline.inc
d01 2018-04-05_00:18:00 calling inc/HALO_EM_PHYS_A_inline.inc
d01 2018-04-05_00:18:00 Top of Radiation Driver
d01 2018-04-05_00:18:00 calling inc/HALO_PWP_inline.inc
d01 2018-04-05_00:18:00 in MYJSFC
d01 2018-04-05_00:18:00 in NOAH DRV
d01 2018-04-05_00:18:00 in MYJPBL
d01 2018-04-05_00:18:00 calling inc/HALO_EM_FDDA_SFC_inline.inc
d01 2018-04-05_00:18:00 calling inc/HALO_EM_TKE_C_inline.inc
d01 2018-04-05_00:18:00 calling inc/PERIOD_BDY_EM_A1_inline.inc
d01 2018-04-05_00:18:00 calling inc/HALO_EM_HELICITY_inline.inc
d01 2018-04-05_00:18:00 calling inc/HALO_EM_TKE_D_inline.inc
d01 2018-04-05_00:18:00 calling inc/HALO_EM_TKE_E_inline.inc
d01 2018-04-05_00:18:00 calling inc/PERIOD_BDY_EM_PHY_BC_inline.inc
d01 2018-04-05_00:18:00 calling inc/PERIOD_BDY_EM_CHEM_inline.inc
d01 2018-04-05_00:18:00 calling inc/HALO_EM_PHYS_PBL_inline.inc
d01 2018-04-05_00:18:00 calling inc/HALO_EM_PHYS_CU_inline.inc
d01 2018-04-05_00:18:00 calling inc/HALO_EM_PHYS_DIFFUSION_inline.inc
d01 2018-04-05_00:18:00 calling inc/HALO_EM_TKE_5_inline.inc
d01 2018-04-05_00:18:00 calling inc/HALO_EM_B_inline.inc
d01 2018-04-05_00:18:00 calling inc/PERIOD_BDY_EM_B_inline.inc
d01 2018-04-05_00:18:00 calling inc/PERIOD_BDY_EM_B_inline.inc
d01 2018-04-05_00:18:00 calling inc/HALO_EM_C_inline.inc
d01 2018-04-05_00:18:00 calling inc/HALO_EM_C2_inline.inc
d01 2018-04-05_00:18:00 calling inc/PERIOD_BDY_EM_B3_inline.inc
d01 2018-04-05_00:18:00 calling inc/HALO_EM_D_inline.inc
d01 2018-04-05_00:18:00 calling inc/PERIOD_EM_DA_inline.inc
d01 2018-04-05_00:18:00 calling inc/HALO_EM_D2_5_inline.inc
d01 2018-04-05_00:18:00 calling inc/PERIOD_BDY_EM_D_inline.inc
d01 2018-04-05_00:18:00 calling inc/PERIOD_BDY_EM_MOIST2_inline.inc
d01 2018-04-05_00:18:00 calling inc/PERIOD_BDY_EM_CHEM2_inline.inc
d01 2018-04-05_00:18:00 calling inc/PERIOD_BDY_EM_TRACER2_inline.inc
d01 2018-04-05_00:18:00 calling inc/PERIOD_BDY_EM_SCALAR2_inline.inc
d01 2018-04-05_00:18:00 calling inc/PERIOD_BDY_EM_TKE_inline.inc
d01 2018-04-05_00:18:00 calling inc/HALO_EM_TKE_5_inline.inc
d01 2018-04-05_00:18:00 calling inc/HALO_EM_MOIST_E_5_inline.inc
d01 2018-04-05_00:18:00 calling inc/HALO_EM_SCALAR_E_5_inline.inc
d01 2018-04-05_00:18:00 calling inc/HALO_EM_A_inline.inc
d01 2018-04-05_00:18:00 calling inc/PERIOD_BDY_EM_A_inline.inc
d01 2018-04-05_00:18:00 calling inc/HALO_EM_B_inline.inc
d01 2018-04-05_00:18:00 calling inc/PERIOD_BDY_EM_B_inline.inc
d01 2018-04-05_00:18:00 calling inc/PERIOD_BDY_EM_B_inline.inc
d01 2018-04-05_00:18:00 calling inc/HALO_EM_C_inline.inc
d01 2018-04-05_00:18:00 calling inc/HALO_EM_C2_inline.inc
d01 2018-04-05_00:18:00 calling inc/PERIOD_BDY_EM_B3_inline.inc
d01 2018-04-05_00:18:00 calling inc/PERIOD_BDY_EM_B_inline.inc
d01 2018-04-05_00:18:00 calling inc/HALO_EM_C_inline.inc
d01 2018-04-05_00:18:00 calling inc/HALO_EM_C2_inline.inc
d01 2018-04-05_00:18:00 calling inc/PERIOD_BDY_EM_B3_inline.inc
d01 2018-04-05_00:18:00 calling inc/HALO_EM_D_inline.inc
d01 2018-04-05_00:18:00 calling inc/PERIOD_EM_DA_inline.inc
d01 2018-04-05_00:18:00 calling inc/HALO_EM_D2_5_inline.inc
d01 2018-04-05_00:18:00 calling inc/PERIOD_BDY_EM_D_inline.inc
d01 2018-04-05_00:18:00 calling inc/PERIOD_BDY_EM_MOIST2_inline.inc
d01 2018-04-05_00:18:00 calling inc/PERIOD_BDY_EM_CHEM2_inline.inc
d01 2018-04-05_00:18:00 calling inc/PERIOD_BDY_EM_TRACER2_inline.inc
d01 2018-04-05_00:18:00 calling inc/PERIOD_BDY_EM_SCALAR2_inline.inc
d01 2018-04-05_00:18:00 calling inc/PERIOD_BDY_EM_TKE_inline.inc
d01 2018-04-05_00:18:00 calling inc/HALO_EM_TKE_7_inline.inc
d01 2018-04-05_00:18:00 calling inc/HALO_EM_MOIST_E_7_inline.inc
d01 2018-04-05_00:18:00 calling inc/HALO_EM_SCALAR_E_7_inline.inc
d01 2018-04-05_00:18:00 calling inc/HALO_EM_A_inline.inc
d01 2018-04-05_00:18:00 calling inc/PERIOD_BDY_EM_A_inline.inc
d01 2018-04-05_00:18:00 calling inc/HALO_EM_B_inline.inc
d01 2018-04-05_00:18:00 calling inc/PERIOD_BDY_EM_B_inline.inc
d01 2018-04-05_00:18:00 calling inc/PERIOD_BDY_EM_B_inline.inc
d01 2018-04-05_00:18:00 calling inc/HALO_EM_C_inline.inc
d01 2018-04-05_00:18:00 calling inc/HALO_EM_C2_inline.inc
d01 2018-04-05_00:18:00 calling inc/PERIOD_BDY_EM_B3_inline.inc
d01 2018-04-05_00:18:00 calling inc/PERIOD_BDY_EM_B_inline.inc
d01 2018-04-05_00:18:00 calling inc/HALO_EM_C_inline.inc
d01 2018-04-05_00:18:00 calling inc/HALO_EM_C2_inline.inc
d01 2018-04-05_00:18:00 calling inc/PERIOD_BDY_EM_B3_inline.inc
d01 2018-04-05_00:18:00 calling inc/PERIOD_BDY_EM_B_inline.inc
d01 2018-04-05_00:18:00 calling inc/HALO_EM_C_inline.inc
d01 2018-04-05_00:18:00 calling inc/HALO_EM_C2_inline.inc
d01 2018-04-05_00:18:00 calling inc/PERIOD_BDY_EM_B3_inline.inc
d01 2018-04-05_00:18:00 calling inc/PERIOD_BDY_EM_B_inline.inc
d01 2018-04-05_00:18:00 calling inc/HALO_EM_C_inline.inc
d01 2018-04-05_00:18:00 calling inc/HALO_EM_C2_inline.inc
d01 2018-04-05_00:18:00 calling inc/PERIOD_BDY_EM_B3_inline.inc
d01 2018-04-05_00:18:00 calling inc/HALO_EM_MOIST_OLD_E_7_inline.inc
d01 2018-04-05_00:18:00 calling inc/PERIOD_BDY_EM_MOIST_OLD_inline.inc
d01 2018-04-05_00:18:00 calling inc/HALO_EM_SCALAR_OLD_E_7_inline.inc
d01 2018-04-05_00:18:00 calling inc/PERIOD_BDY_EM_SCALAR_OLD_inline.inc
d01 2018-04-05_00:18:00 calling inc/HALO_EM_CHEM_OLD_E_7_inline.inc
d01 2018-04-05_00:18:00 calling inc/PERIOD_BDY_EM_CHEM_OLD_inline.inc
d01 2018-04-05_00:18:00 calling inc/HALO_EM_TRACER_OLD_E_7_inline.inc
d01 2018-04-05_00:18:00 calling inc/PERIOD_BDY_EM_TRACER_OLD_inline.inc
d01 2018-04-05_00:18:00 calling inc/HALO_EM_D_inline.inc
d01 2018-04-05_00:18:00 calling inc/PERIOD_EM_DA_inline.inc
d01 2018-04-05_00:18:00 calling inc/HALO_EM_SBM_inline.inc
d01 2018-04-05_00:18:00 microphysics_driver: calling thompson
d01 2018-04-05_00:18:00 calling inc/HALO_EM_D3_5_inline.inc
d01 2018-04-05_00:18:00 calling inc/PERIOD_BDY_EM_D3_inline.inc
d01 2018-04-05_00:18:00 calling inc/PERIOD_BDY_EM_MOIST_inline.inc
d01 2018-04-05_00:18:00 calling inc/PERIOD_BDY_EM_CHEM_inline.inc
d01 2018-04-05_00:18:00 calling inc/PERIOD_BDY_EM_TRACER_inline.inc
d01 2018-04-05_00:18:00 calling inc/PERIOD_BDY_EM_SCALAR_inline.inc
d01 2018-04-05_00:18:00 calling inc/HALO_EM_C_inline.inc
d01 2018-04-05_00:18:00 calling inc/PERIOD_BDY_EM_E_inline.inc
d01 2018-04-05_00:18:00  call set_w_surface
d01 2018-04-05_00:18:00 calling inc/HALO_EM_PHYS_W_inline.inc
d01 2018-04-05_00:18:00 calling inc/HALO_EM_PHYS_HCW_inline.inc
d01 2018-04-05_00:18:00 --> TOP OF AFTER ALL RK STEPS
d01 2018-04-05_00:18:00 --> CALLING DIAGNOSTICS DRIVER
d01 2018-04-05_00:18:00 --> TOP OF DIAGNOSTICS PACKAGE
d01 2018-04-05_00:18:00 --> CALL DIAGNOSTICS PACKAGE: NWP DIAGNOSTICS
d01 2018-04-05_00:18:00 calling inc/HALO_EM_E_5_inline.inc
d01 2018-04-05_00:18:00 calling inc/HALO_EM_MOIST_E_5_inline.inc
d01 2018-04-05_00:18:00 calling inc/HALO_EM_SCALAR_E_5_inline.inc
d01 2018-04-05_00:21:00 module_integrate: back from solve interface
Timing for main: time 2018-04-05_00:21:00 on domain   1:    0.46347 elapsed seconds
d01 2018-04-05_00:21:00 module_integrate: calling solve interface
d01 2018-04-05_00:21:00  grid spacing, dt, time_step_sound=   30000.0000       180.000000               4
d01 2018-04-05_00:21:00 calling inc/HALO_EM_A_inline.inc
d01 2018-04-05_00:21:00 calling inc/PERIOD_BDY_EM_A_inline.inc
d01 2018-04-05_00:21:00 calling inc/HALO_EM_PHYS_A_inline.inc
d01 2018-04-05_00:21:00 Top of Radiation Driver
d01 2018-04-05_00:21:00 calling inc/HALO_PWP_inline.inc
d01 2018-04-05_00:21:00 in MYJSFC
d01 2018-04-05_00:21:00 in NOAH DRV
d01 2018-04-05_00:21:00 in MYJPBL
d01 2018-04-05_00:21:00 in cu_tiedtke
d01 2018-04-05_00:21:00 calling inc/HALO_EM_FDDA_SFC_inline.inc
d01 2018-04-05_00:21:00 calling inc/HALO_EM_TKE_C_inline.inc
d01 2018-04-05_00:21:00 calling inc/PERIOD_BDY_EM_A1_inline.inc
d01 2018-04-05_00:21:00 calling inc/HALO_EM_HELICITY_inline.inc
d01 2018-04-05_00:21:00 calling inc/HALO_EM_TKE_D_inline.inc
d01 2018-04-05_00:21:00 calling inc/HALO_EM_TKE_E_inline.inc
d01 2018-04-05_00:21:00 calling inc/PERIOD_BDY_EM_PHY_BC_inline.inc
d01 2018-04-05_00:21:00 calling inc/PERIOD_BDY_EM_CHEM_inline.inc
d01 2018-04-05_00:21:00 calling inc/HALO_EM_PHYS_PBL_inline.inc
d01 2018-04-05_00:21:00 calling inc/HALO_EM_PHYS_CU_inline.inc
d01 2018-04-05_00:21:00 calling inc/HALO_EM_PHYS_DIFFUSION_inline.inc
d01 2018-04-05_00:21:00 calling inc/HALO_EM_TKE_5_inline.inc
d01 2018-04-05_00:21:00 calling inc/HALO_EM_B_inline.inc
d01 2018-04-05_00:21:00 calling inc/PERIOD_BDY_EM_B_inline.inc
d01 2018-04-05_00:21:00 calling inc/PERIOD_BDY_EM_B_inline.inc
d01 2018-04-05_00:21:00 calling inc/HALO_EM_C_inline.inc
d01 2018-04-05_00:21:00 calling inc/HALO_EM_C2_inline.inc
d01 2018-04-05_00:21:00 calling inc/PERIOD_BDY_EM_B3_inline.inc
d01 2018-04-05_00:21:00 calling inc/HALO_EM_D_inline.inc
d01 2018-04-05_00:21:00 calling inc/PERIOD_EM_DA_inline.inc
d01 2018-04-05_00:21:00 calling inc/HALO_EM_D2_5_inline.inc
d01 2018-04-05_00:21:00 calling inc/PERIOD_BDY_EM_D_inline.inc
d01 2018-04-05_00:21:00 calling inc/PERIOD_BDY_EM_MOIST2_inline.inc
d01 2018-04-05_00:21:00 calling inc/PERIOD_BDY_EM_CHEM2_inline.inc
d01 2018-04-05_00:21:00 calling inc/PERIOD_BDY_EM_TRACER2_inline.inc
d01 2018-04-05_00:21:00 calling inc/PERIOD_BDY_EM_SCALAR2_inline.inc
d01 2018-04-05_00:21:00 calling inc/PERIOD_BDY_EM_TKE_inline.inc
d01 2018-04-05_00:21:00 calling inc/HALO_EM_TKE_5_inline.inc
d01 2018-04-05_00:21:00 calling inc/HALO_EM_MOIST_E_5_inline.inc
d01 2018-04-05_00:21:00 calling inc/HALO_EM_SCALAR_E_5_inline.inc
d01 2018-04-05_00:21:00 calling inc/HALO_EM_A_inline.inc
d01 2018-04-05_00:21:00 calling inc/PERIOD_BDY_EM_A_inline.inc
d01 2018-04-05_00:21:00 calling inc/HALO_EM_B_inline.inc
d01 2018-04-05_00:21:00 calling inc/PERIOD_BDY_EM_B_inline.inc
d01 2018-04-05_00:21:00 calling inc/PERIOD_BDY_EM_B_inline.inc
d01 2018-04-05_00:21:00 calling inc/HALO_EM_C_inline.inc
d01 2018-04-05_00:21:00 calling inc/HALO_EM_C2_inline.inc
d01 2018-04-05_00:21:00 calling inc/PERIOD_BDY_EM_B3_inline.inc
d01 2018-04-05_00:21:00 calling inc/PERIOD_BDY_EM_B_inline.inc
d01 2018-04-05_00:21:00 calling inc/HALO_EM_C_inline.inc
d01 2018-04-05_00:21:00 calling inc/HALO_EM_C2_inline.inc
d01 2018-04-05_00:21:00 calling inc/PERIOD_BDY_EM_B3_inline.inc
d01 2018-04-05_00:21:00 calling inc/HALO_EM_D_inline.inc
d01 2018-04-05_00:21:00 calling inc/PERIOD_EM_DA_inline.inc
d01 2018-04-05_00:21:00 calling inc/HALO_EM_D2_5_inline.inc
d01 2018-04-05_00:21:00 calling inc/PERIOD_BDY_EM_D_inline.inc
d01 2018-04-05_00:21:00 calling inc/PERIOD_BDY_EM_MOIST2_inline.inc
d01 2018-04-05_00:21:00 calling inc/PERIOD_BDY_EM_CHEM2_inline.inc
d01 2018-04-05_00:21:00 calling inc/PERIOD_BDY_EM_TRACER2_inline.inc
d01 2018-04-05_00:21:00 calling inc/PERIOD_BDY_EM_SCALAR2_inline.inc
d01 2018-04-05_00:21:00 calling inc/PERIOD_BDY_EM_TKE_inline.inc
d01 2018-04-05_00:21:00 calling inc/HALO_EM_TKE_7_inline.inc
d01 2018-04-05_00:21:00 calling inc/HALO_EM_MOIST_E_7_inline.inc
d01 2018-04-05_00:21:00 calling inc/HALO_EM_SCALAR_E_7_inline.inc
d01 2018-04-05_00:21:00 calling inc/HALO_EM_A_inline.inc
d01 2018-04-05_00:21:00 calling inc/PERIOD_BDY_EM_A_inline.inc
d01 2018-04-05_00:21:00 calling inc/HALO_EM_B_inline.inc
d01 2018-04-05_00:21:00 calling inc/PERIOD_BDY_EM_B_inline.inc
d01 2018-04-05_00:21:00 calling inc/PERIOD_BDY_EM_B_inline.inc
d01 2018-04-05_00:21:00 calling inc/HALO_EM_C_inline.inc
d01 2018-04-05_00:21:00 calling inc/HALO_EM_C2_inline.inc
d01 2018-04-05_00:21:00 calling inc/PERIOD_BDY_EM_B3_inline.inc
d01 2018-04-05_00:21:00 calling inc/PERIOD_BDY_EM_B_inline.inc
d01 2018-04-05_00:21:00 calling inc/HALO_EM_C_inline.inc
d01 2018-04-05_00:21:00 calling inc/HALO_EM_C2_inline.inc
d01 2018-04-05_00:21:00 calling inc/PERIOD_BDY_EM_B3_inline.inc
d01 2018-04-05_00:21:00 calling inc/PERIOD_BDY_EM_B_inline.inc
d01 2018-04-05_00:21:00 calling inc/HALO_EM_C_inline.inc
d01 2018-04-05_00:21:00 calling inc/HALO_EM_C2_inline.inc
d01 2018-04-05_00:21:00 calling inc/PERIOD_BDY_EM_B3_inline.inc
d01 2018-04-05_00:21:00 calling inc/PERIOD_BDY_EM_B_inline.inc
d01 2018-04-05_00:21:00 calling inc/HALO_EM_C_inline.inc
d01 2018-04-05_00:21:00 calling inc/HALO_EM_C2_inline.inc
d01 2018-04-05_00:21:00 calling inc/PERIOD_BDY_EM_B3_inline.inc
d01 2018-04-05_00:21:00 calling inc/HALO_EM_MOIST_OLD_E_7_inline.inc
d01 2018-04-05_00:21:00 calling inc/PERIOD_BDY_EM_MOIST_OLD_inline.inc
d01 2018-04-05_00:21:00 calling inc/HALO_EM_SCALAR_OLD_E_7_inline.inc
d01 2018-04-05_00:21:00 calling inc/PERIOD_BDY_EM_SCALAR_OLD_inline.inc
d01 2018-04-05_00:21:00 calling inc/HALO_EM_CHEM_OLD_E_7_inline.inc
d01 2018-04-05_00:21:00 calling inc/PERIOD_BDY_EM_CHEM_OLD_inline.inc
d01 2018-04-05_00:21:00 calling inc/HALO_EM_TRACER_OLD_E_7_inline.inc
d01 2018-04-05_00:21:00 calling inc/PERIOD_BDY_EM_TRACER_OLD_inline.inc
d01 2018-04-05_00:21:00 calling inc/HALO_EM_D_inline.inc
d01 2018-04-05_00:21:00 calling inc/PERIOD_EM_DA_inline.inc
d01 2018-04-05_00:21:00 calling inc/HALO_EM_SBM_inline.inc
d01 2018-04-05_00:21:00 microphysics_driver: calling thompson
d01 2018-04-05_00:21:00 calling inc/HALO_EM_D3_5_inline.inc
d01 2018-04-05_00:21:00 calling inc/PERIOD_BDY_EM_D3_inline.inc
d01 2018-04-05_00:21:00 calling inc/PERIOD_BDY_EM_MOIST_inline.inc
d01 2018-04-05_00:21:00 calling inc/PERIOD_BDY_EM_CHEM_inline.inc
d01 2018-04-05_00:21:00 calling inc/PERIOD_BDY_EM_TRACER_inline.inc
d01 2018-04-05_00:21:00 calling inc/PERIOD_BDY_EM_SCALAR_inline.inc
d01 2018-04-05_00:21:00 calling inc/HALO_EM_C_inline.inc
d01 2018-04-05_00:21:00 calling inc/PERIOD_BDY_EM_E_inline.inc
d01 2018-04-05_00:21:00  call set_w_surface
d01 2018-04-05_00:21:00 calling inc/HALO_EM_PHYS_W_inline.inc
d01 2018-04-05_00:21:00 calling inc/HALO_EM_PHYS_HCW_inline.inc
d01 2018-04-05_00:21:00 --> TOP OF AFTER ALL RK STEPS
d01 2018-04-05_00:21:00 --> CALLING DIAGNOSTICS DRIVER
d01 2018-04-05_00:21:00 --> TOP OF DIAGNOSTICS PACKAGE
d01 2018-04-05_00:21:00 --> CALL DIAGNOSTICS PACKAGE: NWP DIAGNOSTICS
d01 2018-04-05_00:21:00 calling inc/HALO_EM_E_5_inline.inc
d01 2018-04-05_00:21:00 calling inc/HALO_EM_MOIST_E_5_inline.inc
d01 2018-04-05_00:21:00 calling inc/HALO_EM_SCALAR_E_5_inline.inc
d01 2018-04-05_00:24:00 module_integrate: back from solve interface
Timing for main: time 2018-04-05_00:24:00 on domain   1:    0.48714 elapsed seconds
d01 2018-04-05_00:24:00 module_integrate: calling solve interface
d01 2018-04-05_00:24:00  grid spacing, dt, time_step_sound=   30000.0000       180.000000               4
d01 2018-04-05_00:24:00 calling inc/HALO_EM_A_inline.inc
d01 2018-04-05_00:24:00 calling inc/PERIOD_BDY_EM_A_inline.inc
d01 2018-04-05_00:24:00 calling inc/HALO_EM_PHYS_A_inline.inc
d01 2018-04-05_00:24:00 Top of Radiation Driver
d01 2018-04-05_00:24:00 calling inc/HALO_PWP_inline.inc
d01 2018-04-05_00:24:00 in MYJSFC
d01 2018-04-05_00:24:00 in NOAH DRV
d01 2018-04-05_00:24:00 in MYJPBL
d01 2018-04-05_00:24:00 calling inc/HALO_EM_FDDA_SFC_inline.inc
d01 2018-04-05_00:24:00 calling inc/HALO_EM_TKE_C_inline.inc
d01 2018-04-05_00:24:00 calling inc/PERIOD_BDY_EM_A1_inline.inc
d01 2018-04-05_00:24:00 calling inc/HALO_EM_HELICITY_inline.inc
d01 2018-04-05_00:24:00 calling inc/HALO_EM_TKE_D_inline.inc
d01 2018-04-05_00:24:00 calling inc/HALO_EM_TKE_E_inline.inc
d01 2018-04-05_00:24:00 calling inc/PERIOD_BDY_EM_PHY_BC_inline.inc
d01 2018-04-05_00:24:00 calling inc/PERIOD_BDY_EM_CHEM_inline.inc
d01 2018-04-05_00:24:00 calling inc/HALO_EM_PHYS_PBL_inline.inc
d01 2018-04-05_00:24:00 calling inc/HALO_EM_PHYS_CU_inline.inc
d01 2018-04-05_00:24:00 calling inc/HALO_EM_PHYS_DIFFUSION_inline.inc
d01 2018-04-05_00:24:00 calling inc/HALO_EM_TKE_5_inline.inc
d01 2018-04-05_00:24:00 calling inc/HALO_EM_B_inline.inc
d01 2018-04-05_00:24:00 calling inc/PERIOD_BDY_EM_B_inline.inc
d01 2018-04-05_00:24:00 calling inc/PERIOD_BDY_EM_B_inline.inc
d01 2018-04-05_00:24:00 calling inc/HALO_EM_C_inline.inc
d01 2018-04-05_00:24:00 calling inc/HALO_EM_C2_inline.inc
d01 2018-04-05_00:24:00 calling inc/PERIOD_BDY_EM_B3_inline.inc
d01 2018-04-05_00:24:00 calling inc/HALO_EM_D_inline.inc
d01 2018-04-05_00:24:00 calling inc/PERIOD_EM_DA_inline.inc
d01 2018-04-05_00:24:00 calling inc/HALO_EM_D2_5_inline.inc
d01 2018-04-05_00:24:00 calling inc/PERIOD_BDY_EM_D_inline.inc
d01 2018-04-05_00:24:00 calling inc/PERIOD_BDY_EM_MOIST2_inline.inc
d01 2018-04-05_00:24:00 calling inc/PERIOD_BDY_EM_CHEM2_inline.inc
d01 2018-04-05_00:24:00 calling inc/PERIOD_BDY_EM_TRACER2_inline.inc
d01 2018-04-05_00:24:00 calling inc/PERIOD_BDY_EM_SCALAR2_inline.inc
d01 2018-04-05_00:24:00 calling inc/PERIOD_BDY_EM_TKE_inline.inc
d01 2018-04-05_00:24:00 calling inc/HALO_EM_TKE_5_inline.inc
d01 2018-04-05_00:24:00 calling inc/HALO_EM_MOIST_E_5_inline.inc
d01 2018-04-05_00:24:00 calling inc/HALO_EM_SCALAR_E_5_inline.inc
d01 2018-04-05_00:24:00 calling inc/HALO_EM_A_inline.inc
d01 2018-04-05_00:24:00 calling inc/PERIOD_BDY_EM_A_inline.inc
d01 2018-04-05_00:24:00 calling inc/HALO_EM_B_inline.inc
d01 2018-04-05_00:24:00 calling inc/PERIOD_BDY_EM_B_inline.inc
d01 2018-04-05_00:24:00 calling inc/PERIOD_BDY_EM_B_inline.inc
d01 2018-04-05_00:24:00 calling inc/HALO_EM_C_inline.inc
d01 2018-04-05_00:24:00 calling inc/HALO_EM_C2_inline.inc
d01 2018-04-05_00:24:00 calling inc/PERIOD_BDY_EM_B3_inline.inc
d01 2018-04-05_00:24:00 calling inc/PERIOD_BDY_EM_B_inline.inc
d01 2018-04-05_00:24:00 calling inc/HALO_EM_C_inline.inc
d01 2018-04-05_00:24:00 calling inc/HALO_EM_C2_inline.inc
d01 2018-04-05_00:24:00 calling inc/PERIOD_BDY_EM_B3_inline.inc
d01 2018-04-05_00:24:00 calling inc/HALO_EM_D_inline.inc
d01 2018-04-05_00:24:00 calling inc/PERIOD_EM_DA_inline.inc
d01 2018-04-05_00:24:00 calling inc/HALO_EM_D2_5_inline.inc
d01 2018-04-05_00:24:00 calling inc/PERIOD_BDY_EM_D_inline.inc
d01 2018-04-05_00:24:00 calling inc/PERIOD_BDY_EM_MOIST2_inline.inc
d01 2018-04-05_00:24:00 calling inc/PERIOD_BDY_EM_CHEM2_inline.inc
d01 2018-04-05_00:24:00 calling inc/PERIOD_BDY_EM_TRACER2_inline.inc
d01 2018-04-05_00:24:00 calling inc/PERIOD_BDY_EM_SCALAR2_inline.inc
d01 2018-04-05_00:24:00 calling inc/PERIOD_BDY_EM_TKE_inline.inc
d01 2018-04-05_00:24:00 calling inc/HALO_EM_TKE_7_inline.inc
d01 2018-04-05_00:24:00 calling inc/HALO_EM_MOIST_E_7_inline.inc
d01 2018-04-05_00:24:00 calling inc/HALO_EM_SCALAR_E_7_inline.inc
d01 2018-04-05_00:24:00 calling inc/HALO_EM_A_inline.inc
d01 2018-04-05_00:24:00 calling inc/PERIOD_BDY_EM_A_inline.inc
d01 2018-04-05_00:24:00 calling inc/HALO_EM_B_inline.inc
d01 2018-04-05_00:24:00 calling inc/PERIOD_BDY_EM_B_inline.inc
d01 2018-04-05_00:24:00 calling inc/PERIOD_BDY_EM_B_inline.inc
d01 2018-04-05_00:24:00 calling inc/HALO_EM_C_inline.inc
d01 2018-04-05_00:24:00 calling inc/HALO_EM_C2_inline.inc
d01 2018-04-05_00:24:00 calling inc/PERIOD_BDY_EM_B3_inline.inc
d01 2018-04-05_00:24:00 calling inc/PERIOD_BDY_EM_B_inline.inc
d01 2018-04-05_00:24:00 calling inc/HALO_EM_C_inline.inc
d01 2018-04-05_00:24:00 calling inc/HALO_EM_C2_inline.inc
d01 2018-04-05_00:24:00 calling inc/PERIOD_BDY_EM_B3_inline.inc
d01 2018-04-05_00:24:00 calling inc/PERIOD_BDY_EM_B_inline.inc
d01 2018-04-05_00:24:00 calling inc/HALO_EM_C_inline.inc
d01 2018-04-05_00:24:00 calling inc/HALO_EM_C2_inline.inc
d01 2018-04-05_00:24:00 calling inc/PERIOD_BDY_EM_B3_inline.inc
d01 2018-04-05_00:24:00 calling inc/PERIOD_BDY_EM_B_inline.inc
d01 2018-04-05_00:24:00 calling inc/HALO_EM_C_inline.inc
d01 2018-04-05_00:24:00 calling inc/HALO_EM_C2_inline.inc
d01 2018-04-05_00:24:00 calling inc/PERIOD_BDY_EM_B3_inline.inc
d01 2018-04-05_00:24:00 calling inc/HALO_EM_MOIST_OLD_E_7_inline.inc
d01 2018-04-05_00:24:00 calling inc/PERIOD_BDY_EM_MOIST_OLD_inline.inc
d01 2018-04-05_00:24:00 calling inc/HALO_EM_SCALAR_OLD_E_7_inline.inc
d01 2018-04-05_00:24:00 calling inc/PERIOD_BDY_EM_SCALAR_OLD_inline.inc
d01 2018-04-05_00:24:00 calling inc/HALO_EM_CHEM_OLD_E_7_inline.inc
d01 2018-04-05_00:24:00 calling inc/PERIOD_BDY_EM_CHEM_OLD_inline.inc
d01 2018-04-05_00:24:00 calling inc/HALO_EM_TRACER_OLD_E_7_inline.inc
d01 2018-04-05_00:24:00 calling inc/PERIOD_BDY_EM_TRACER_OLD_inline.inc
d01 2018-04-05_00:24:00 calling inc/HALO_EM_D_inline.inc
d01 2018-04-05_00:24:00 calling inc/PERIOD_EM_DA_inline.inc
d01 2018-04-05_00:24:00 calling inc/HALO_EM_SBM_inline.inc
d01 2018-04-05_00:24:00 microphysics_driver: calling thompson
d01 2018-04-05_00:24:00 calling inc/HALO_EM_D3_5_inline.inc
d01 2018-04-05_00:24:00 calling inc/PERIOD_BDY_EM_D3_inline.inc
d01 2018-04-05_00:24:00 calling inc/PERIOD_BDY_EM_MOIST_inline.inc
d01 2018-04-05_00:24:00 calling inc/PERIOD_BDY_EM_CHEM_inline.inc
d01 2018-04-05_00:24:00 calling inc/PERIOD_BDY_EM_TRACER_inline.inc
d01 2018-04-05_00:24:00 calling inc/PERIOD_BDY_EM_SCALAR_inline.inc
d01 2018-04-05_00:24:00 calling inc/HALO_EM_C_inline.inc
d01 2018-04-05_00:24:00 calling inc/PERIOD_BDY_EM_E_inline.inc
d01 2018-04-05_00:24:00  call set_w_surface
d01 2018-04-05_00:24:00 calling inc/HALO_EM_PHYS_W_inline.inc
d01 2018-04-05_00:24:00 calling inc/HALO_EM_PHYS_HCW_inline.inc
d01 2018-04-05_00:24:00 --> TOP OF AFTER ALL RK STEPS
d01 2018-04-05_00:24:00 --> CALLING DIAGNOSTICS DRIVER
d01 2018-04-05_00:24:00 --> TOP OF DIAGNOSTICS PACKAGE
d01 2018-04-05_00:24:00 --> CALL DIAGNOSTICS PACKAGE: NWP DIAGNOSTICS
d01 2018-04-05_00:24:00 calling inc/HALO_EM_E_5_inline.inc
d01 2018-04-05_00:24:00 calling inc/HALO_EM_MOIST_E_5_inline.inc
d01 2018-04-05_00:24:00 calling inc/HALO_EM_SCALAR_E_5_inline.inc
d01 2018-04-05_00:27:00 module_integrate: back from solve interface
Timing for main: time 2018-04-05_00:27:00 on domain   1:    0.46046 elapsed seconds
d01 2018-04-05_00:27:00 module_integrate: calling solve interface
d01 2018-04-05_00:27:00  grid spacing, dt, time_step_sound=   30000.0000       180.000000               4
d01 2018-04-05_00:27:00 calling inc/HALO_EM_A_inline.inc
d01 2018-04-05_00:27:00 calling inc/PERIOD_BDY_EM_A_inline.inc
d01 2018-04-05_00:27:00 calling inc/HALO_EM_PHYS_A_inline.inc
d01 2018-04-05_00:27:00 Top of Radiation Driver
d01 2018-04-05_00:27:00 calling inc/HALO_PWP_inline.inc
d01 2018-04-05_00:27:00 in MYJSFC
d01 2018-04-05_00:27:00 in NOAH DRV
d01 2018-04-05_00:27:00 in MYJPBL
d01 2018-04-05_00:27:00 in cu_tiedtke
d01 2018-04-05_00:27:00 calling inc/HALO_EM_FDDA_SFC_inline.inc
d01 2018-04-05_00:27:00 calling inc/HALO_EM_TKE_C_inline.inc
d01 2018-04-05_00:27:00 calling inc/PERIOD_BDY_EM_A1_inline.inc
d01 2018-04-05_00:27:00 calling inc/HALO_EM_HELICITY_inline.inc
d01 2018-04-05_00:27:00 calling inc/HALO_EM_TKE_D_inline.inc
d01 2018-04-05_00:27:00 calling inc/HALO_EM_TKE_E_inline.inc
d01 2018-04-05_00:27:00 calling inc/PERIOD_BDY_EM_PHY_BC_inline.inc
d01 2018-04-05_00:27:00 calling inc/PERIOD_BDY_EM_CHEM_inline.inc
d01 2018-04-05_00:27:00 calling inc/HALO_EM_PHYS_PBL_inline.inc
d01 2018-04-05_00:27:00 calling inc/HALO_EM_PHYS_CU_inline.inc
d01 2018-04-05_00:27:00 calling inc/HALO_EM_PHYS_DIFFUSION_inline.inc
d01 2018-04-05_00:27:00 calling inc/HALO_EM_TKE_5_inline.inc
d01 2018-04-05_00:27:00 calling inc/HALO_EM_B_inline.inc
d01 2018-04-05_00:27:00 calling inc/PERIOD_BDY_EM_B_inline.inc
d01 2018-04-05_00:27:00 calling inc/PERIOD_BDY_EM_B_inline.inc
d01 2018-04-05_00:27:00 calling inc/HALO_EM_C_inline.inc
d01 2018-04-05_00:27:00 calling inc/HALO_EM_C2_inline.inc
d01 2018-04-05_00:27:00 calling inc/PERIOD_BDY_EM_B3_inline.inc
d01 2018-04-05_00:27:00 calling inc/HALO_EM_D_inline.inc
d01 2018-04-05_00:27:00 calling inc/PERIOD_EM_DA_inline.inc
d01 2018-04-05_00:27:00 calling inc/HALO_EM_D2_5_inline.inc
d01 2018-04-05_00:27:00 calling inc/PERIOD_BDY_EM_D_inline.inc
d01 2018-04-05_00:27:00 calling inc/PERIOD_BDY_EM_MOIST2_inline.inc
d01 2018-04-05_00:27:00 calling inc/PERIOD_BDY_EM_CHEM2_inline.inc
d01 2018-04-05_00:27:00 calling inc/PERIOD_BDY_EM_TRACER2_inline.inc
d01 2018-04-05_00:27:00 calling inc/PERIOD_BDY_EM_SCALAR2_inline.inc
d01 2018-04-05_00:27:00 calling inc/PERIOD_BDY_EM_TKE_inline.inc
d01 2018-04-05_00:27:00 calling inc/HALO_EM_TKE_5_inline.inc
d01 2018-04-05_00:27:00 calling inc/HALO_EM_MOIST_E_5_inline.inc
d01 2018-04-05_00:27:00 calling inc/HALO_EM_SCALAR_E_5_inline.inc
d01 2018-04-05_00:27:00 calling inc/HALO_EM_A_inline.inc
d01 2018-04-05_00:27:00 calling inc/PERIOD_BDY_EM_A_inline.inc
d01 2018-04-05_00:27:00 calling inc/HALO_EM_B_inline.inc
d01 2018-04-05_00:27:00 calling inc/PERIOD_BDY_EM_B_inline.inc
d01 2018-04-05_00:27:00 calling inc/PERIOD_BDY_EM_B_inline.inc
d01 2018-04-05_00:27:00 calling inc/HALO_EM_C_inline.inc
d01 2018-04-05_00:27:00 calling inc/HALO_EM_C2_inline.inc
d01 2018-04-05_00:27:00 calling inc/PERIOD_BDY_EM_B3_inline.inc
d01 2018-04-05_00:27:00 calling inc/PERIOD_BDY_EM_B_inline.inc
d01 2018-04-05_00:27:00 calling inc/HALO_EM_C_inline.inc
d01 2018-04-05_00:27:00 calling inc/HALO_EM_C2_inline.inc
d01 2018-04-05_00:27:00 calling inc/PERIOD_BDY_EM_B3_inline.inc
d01 2018-04-05_00:27:00 calling inc/HALO_EM_D_inline.inc
d01 2018-04-05_00:27:00 calling inc/PERIOD_EM_DA_inline.inc
d01 2018-04-05_00:27:00 calling inc/HALO_EM_D2_5_inline.inc
d01 2018-04-05_00:27:00 calling inc/PERIOD_BDY_EM_D_inline.inc
d01 2018-04-05_00:27:00 calling inc/PERIOD_BDY_EM_MOIST2_inline.inc
d01 2018-04-05_00:27:00 calling inc/PERIOD_BDY_EM_CHEM2_inline.inc
d01 2018-04-05_00:27:00 calling inc/PERIOD_BDY_EM_TRACER2_inline.inc
d01 2018-04-05_00:27:00 calling inc/PERIOD_BDY_EM_SCALAR2_inline.inc
d01 2018-04-05_00:27:00 calling inc/PERIOD_BDY_EM_TKE_inline.inc
d01 2018-04-05_00:27:00 calling inc/HALO_EM_TKE_7_inline.inc
d01 2018-04-05_00:27:00 calling inc/HALO_EM_MOIST_E_7_inline.inc
d01 2018-04-05_00:27:00 calling inc/HALO_EM_SCALAR_E_7_inline.inc
d01 2018-04-05_00:27:00 calling inc/HALO_EM_A_inline.inc
d01 2018-04-05_00:27:00 calling inc/PERIOD_BDY_EM_A_inline.inc
d01 2018-04-05_00:27:00 calling inc/HALO_EM_B_inline.inc
d01 2018-04-05_00:27:00 calling inc/PERIOD_BDY_EM_B_inline.inc
d01 2018-04-05_00:27:00 calling inc/PERIOD_BDY_EM_B_inline.inc
d01 2018-04-05_00:27:00 calling inc/HALO_EM_C_inline.inc
d01 2018-04-05_00:27:00 calling inc/HALO_EM_C2_inline.inc
d01 2018-04-05_00:27:00 calling inc/PERIOD_BDY_EM_B3_inline.inc
d01 2018-04-05_00:27:00 calling inc/PERIOD_BDY_EM_B_inline.inc
d01 2018-04-05_00:27:00 calling inc/HALO_EM_C_inline.inc
d01 2018-04-05_00:27:00 calling inc/HALO_EM_C2_inline.inc
d01 2018-04-05_00:27:00 calling inc/PERIOD_BDY_EM_B3_inline.inc
d01 2018-04-05_00:27:00 calling inc/PERIOD_BDY_EM_B_inline.inc
d01 2018-04-05_00:27:00 calling inc/HALO_EM_C_inline.inc
d01 2018-04-05_00:27:00 calling inc/HALO_EM_C2_inline.inc
d01 2018-04-05_00:27:00 calling inc/PERIOD_BDY_EM_B3_inline.inc
d01 2018-04-05_00:27:00 calling inc/PERIOD_BDY_EM_B_inline.inc
d01 2018-04-05_00:27:00 calling inc/HALO_EM_C_inline.inc
d01 2018-04-05_00:27:00 calling inc/HALO_EM_C2_inline.inc
d01 2018-04-05_00:27:00 calling inc/PERIOD_BDY_EM_B3_inline.inc
d01 2018-04-05_00:27:00 calling inc/HALO_EM_MOIST_OLD_E_7_inline.inc
d01 2018-04-05_00:27:00 calling inc/PERIOD_BDY_EM_MOIST_OLD_inline.inc
d01 2018-04-05_00:27:00 calling inc/HALO_EM_SCALAR_OLD_E_7_inline.inc
d01 2018-04-05_00:27:00 calling inc/PERIOD_BDY_EM_SCALAR_OLD_inline.inc
d01 2018-04-05_00:27:00 calling inc/HALO_EM_CHEM_OLD_E_7_inline.inc
d01 2018-04-05_00:27:00 calling inc/PERIOD_BDY_EM_CHEM_OLD_inline.inc
d01 2018-04-05_00:27:00 calling inc/HALO_EM_TRACER_OLD_E_7_inline.inc
d01 2018-04-05_00:27:00 calling inc/PERIOD_BDY_EM_TRACER_OLD_inline.inc
d01 2018-04-05_00:27:00 calling inc/HALO_EM_D_inline.inc
d01 2018-04-05_00:27:00 calling inc/PERIOD_EM_DA_inline.inc
d01 2018-04-05_00:27:00 calling inc/HALO_EM_SBM_inline.inc
d01 2018-04-05_00:27:00 microphysics_driver: calling thompson
d01 2018-04-05_00:27:00 calling inc/HALO_EM_D3_5_inline.inc
d01 2018-04-05_00:27:00 calling inc/PERIOD_BDY_EM_D3_inline.inc
d01 2018-04-05_00:27:00 calling inc/PERIOD_BDY_EM_MOIST_inline.inc
d01 2018-04-05_00:27:00 calling inc/PERIOD_BDY_EM_CHEM_inline.inc
d01 2018-04-05_00:27:00 calling inc/PERIOD_BDY_EM_TRACER_inline.inc
d01 2018-04-05_00:27:00 calling inc/PERIOD_BDY_EM_SCALAR_inline.inc
d01 2018-04-05_00:27:00 calling inc/HALO_EM_C_inline.inc
d01 2018-04-05_00:27:00 calling inc/PERIOD_BDY_EM_E_inline.inc
d01 2018-04-05_00:27:00  call set_w_surface
d01 2018-04-05_00:27:00 calling inc/HALO_EM_PHYS_W_inline.inc
d01 2018-04-05_00:27:00 calling inc/HALO_EM_PHYS_HCW_inline.inc
d01 2018-04-05_00:27:00 --> TOP OF AFTER ALL RK STEPS
d01 2018-04-05_00:27:00 --> CALLING DIAGNOSTICS DRIVER
d01 2018-04-05_00:27:00 --> TOP OF DIAGNOSTICS PACKAGE
d01 2018-04-05_00:27:00 --> CALL DIAGNOSTICS PACKAGE: NWP DIAGNOSTICS
d01 2018-04-05_00:27:00 calling inc/HALO_EM_E_5_inline.inc
d01 2018-04-05_00:27:00 calling inc/HALO_EM_MOIST_E_5_inline.inc
d01 2018-04-05_00:27:00 calling inc/HALO_EM_SCALAR_E_5_inline.inc
d01 2018-04-05_00:30:00 module_integrate: back from solve interface
Timing for main: time 2018-04-05_00:30:00 on domain   1:    0.52685 elapsed seconds
d01 2018-04-05_00:30:00 module_integrate: calling solve interface
d01 2018-04-05_00:30:00  grid spacing, dt, time_step_sound=   30000.0000       180.000000               4
d01 2018-04-05_00:30:00 calling inc/HALO_EM_A_inline.inc
d01 2018-04-05_00:30:00 calling inc/PERIOD_BDY_EM_A_inline.inc
d01 2018-04-05_00:30:00 calling inc/HALO_EM_PHYS_A_inline.inc
d01 2018-04-05_00:30:00 Top of Radiation Driver
d01 2018-04-05_00:30:00 CALL cldfra1
d01 2018-04-05_00:30:00 CALL rrtmg_lw
d01 2018-04-05_00:30:00 CALL rrtmg_sw
d01 2018-04-05_00:30:00 calling inc/HALO_PWP_inline.inc
d01 2018-04-05_00:30:00 in MYJSFC
d01 2018-04-05_00:30:00 in NOAH DRV
d01 2018-04-05_00:30:00 in MYJPBL
d01 2018-04-05_00:30:00 calling inc/HALO_EM_FDDA_SFC_inline.inc
d01 2018-04-05_00:30:00 calling inc/HALO_EM_TKE_C_inline.inc
d01 2018-04-05_00:30:00 calling inc/PERIOD_BDY_EM_A1_inline.inc
d01 2018-04-05_00:30:00 calling inc/HALO_EM_HELICITY_inline.inc
d01 2018-04-05_00:30:00 calling inc/HALO_EM_TKE_D_inline.inc
d01 2018-04-05_00:30:00 calling inc/HALO_EM_TKE_E_inline.inc
d01 2018-04-05_00:30:00 calling inc/PERIOD_BDY_EM_PHY_BC_inline.inc
d01 2018-04-05_00:30:00 calling inc/PERIOD_BDY_EM_CHEM_inline.inc
d01 2018-04-05_00:30:00 calling inc/HALO_EM_PHYS_PBL_inline.inc
d01 2018-04-05_00:30:00 calling inc/HALO_EM_PHYS_CU_inline.inc
d01 2018-04-05_00:30:00 calling inc/HALO_EM_PHYS_DIFFUSION_inline.inc
d01 2018-04-05_00:30:00 calling inc/HALO_EM_TKE_5_inline.inc
d01 2018-04-05_00:30:00 calling inc/HALO_EM_B_inline.inc
d01 2018-04-05_00:30:00 calling inc/PERIOD_BDY_EM_B_inline.inc
d01 2018-04-05_00:30:00 calling inc/PERIOD_BDY_EM_B_inline.inc
d01 2018-04-05_00:30:00 calling inc/HALO_EM_C_inline.inc
d01 2018-04-05_00:30:00 calling inc/HALO_EM_C2_inline.inc
[...]
d01 2018-04-05_11:51:00 calling inc/PERIOD_BDY_EM_SCALAR2_inline.inc
d01 2018-04-05_11:51:00 calling inc/PERIOD_BDY_EM_TKE_inline.inc
d01 2018-04-05_11:51:00 calling inc/HALO_EM_TKE_5_inline.inc
d01 2018-04-05_11:51:00 calling inc/HALO_EM_MOIST_E_5_inline.inc
d01 2018-04-05_11:51:00 calling inc/HALO_EM_SCALAR_E_5_inline.inc
d01 2018-04-05_11:51:00 calling inc/HALO_EM_A_inline.inc
d01 2018-04-05_11:51:00 calling inc/PERIOD_BDY_EM_A_inline.inc
d01 2018-04-05_11:51:00 calling inc/HALO_EM_B_inline.inc
d01 2018-04-05_11:51:00 calling inc/PERIOD_BDY_EM_B_inline.inc
d01 2018-04-05_11:51:00 calling inc/PERIOD_BDY_EM_B_inline.inc
d01 2018-04-05_11:51:00 calling inc/HALO_EM_C_inline.inc
d01 2018-04-05_11:51:00 calling inc/HALO_EM_C2_inline.inc
d01 2018-04-05_11:51:00 calling inc/PERIOD_BDY_EM_B3_inline.inc
d01 2018-04-05_11:51:00 calling inc/PERIOD_BDY_EM_B_inline.inc
d01 2018-04-05_11:51:00 calling inc/HALO_EM_C_inline.inc
d01 2018-04-05_11:51:00 calling inc/HALO_EM_C2_inline.inc
d01 2018-04-05_11:51:00 calling inc/PERIOD_BDY_EM_B3_inline.inc
d01 2018-04-05_11:51:00 calling inc/HALO_EM_D_inline.inc
d01 2018-04-05_11:51:00 calling inc/PERIOD_EM_DA_inline.inc
d01 2018-04-05_11:51:00 calling inc/HALO_EM_D2_5_inline.inc
d01 2018-04-05_11:51:00 calling inc/PERIOD_BDY_EM_D_inline.inc
d01 2018-04-05_11:51:00 calling inc/PERIOD_BDY_EM_MOIST2_inline.inc
d01 2018-04-05_11:51:00 calling inc/PERIOD_BDY_EM_CHEM2_inline.inc
d01 2018-04-05_11:51:00 calling inc/PERIOD_BDY_EM_TRACER2_inline.inc
d01 2018-04-05_11:51:00 calling inc/PERIOD_BDY_EM_SCALAR2_inline.inc
d01 2018-04-05_11:51:00 calling inc/PERIOD_BDY_EM_TKE_inline.inc
d01 2018-04-05_11:51:00 calling inc/HALO_EM_TKE_7_inline.inc
d01 2018-04-05_11:51:00 calling inc/HALO_EM_MOIST_E_7_inline.inc
d01 2018-04-05_11:51:00 calling inc/HALO_EM_SCALAR_E_7_inline.inc
d01 2018-04-05_11:51:00 calling inc/HALO_EM_A_inline.inc
d01 2018-04-05_11:51:00 calling inc/PERIOD_BDY_EM_A_inline.inc
d01 2018-04-05_11:51:00 calling inc/HALO_EM_B_inline.inc
d01 2018-04-05_11:51:00 calling inc/PERIOD_BDY_EM_B_inline.inc
d01 2018-04-05_11:51:00 calling inc/PERIOD_BDY_EM_B_inline.inc
d01 2018-04-05_11:51:00 calling inc/HALO_EM_C_inline.inc
d01 2018-04-05_11:51:00 calling inc/HALO_EM_C2_inline.inc
d01 2018-04-05_11:51:00 calling inc/PERIOD_BDY_EM_B3_inline.inc
d01 2018-04-05_11:51:00 calling inc/PERIOD_BDY_EM_B_inline.inc
d01 2018-04-05_11:51:00 calling inc/HALO_EM_C_inline.inc
d01 2018-04-05_11:51:00 calling inc/HALO_EM_C2_inline.inc
d01 2018-04-05_11:51:00 calling inc/PERIOD_BDY_EM_B3_inline.inc
d01 2018-04-05_11:51:00 calling inc/PERIOD_BDY_EM_B_inline.inc
d01 2018-04-05_11:51:00 calling inc/HALO_EM_C_inline.inc
d01 2018-04-05_11:51:00 calling inc/HALO_EM_C2_inline.inc
d01 2018-04-05_11:51:00 calling inc/PERIOD_BDY_EM_B3_inline.inc
d01 2018-04-05_11:51:00 calling inc/PERIOD_BDY_EM_B_inline.inc
d01 2018-04-05_11:51:00 calling inc/HALO_EM_C_inline.inc
d01 2018-04-05_11:51:00 calling inc/HALO_EM_C2_inline.inc
d01 2018-04-05_11:51:00 calling inc/PERIOD_BDY_EM_B3_inline.inc
d01 2018-04-05_11:51:00 calling inc/HALO_EM_MOIST_OLD_E_7_inline.inc
d01 2018-04-05_11:51:00 calling inc/PERIOD_BDY_EM_MOIST_OLD_inline.inc
d01 2018-04-05_11:51:00 calling inc/HALO_EM_SCALAR_OLD_E_7_inline.inc
d01 2018-04-05_11:51:00 calling inc/PERIOD_BDY_EM_SCALAR_OLD_inline.inc
d01 2018-04-05_11:51:00 calling inc/HALO_EM_CHEM_OLD_E_7_inline.inc
d01 2018-04-05_11:51:00 calling inc/PERIOD_BDY_EM_CHEM_OLD_inline.inc
d01 2018-04-05_11:51:00 calling inc/HALO_EM_TRACER_OLD_E_7_inline.inc
d01 2018-04-05_11:51:00 calling inc/PERIOD_BDY_EM_TRACER_OLD_inline.inc
d01 2018-04-05_11:51:00 calling inc/HALO_EM_D_inline.inc
d01 2018-04-05_11:51:00 calling inc/PERIOD_EM_DA_inline.inc
d01 2018-04-05_11:51:00 calling inc/HALO_EM_SBM_inline.inc
d01 2018-04-05_11:51:00 microphysics_driver: calling thompson
d01 2018-04-05_11:51:00 calling inc/HALO_EM_D3_5_inline.inc
d01 2018-04-05_11:51:00 calling inc/PERIOD_BDY_EM_D3_inline.inc
d01 2018-04-05_11:51:00 calling inc/PERIOD_BDY_EM_MOIST_inline.inc
d01 2018-04-05_11:51:00 calling inc/PERIOD_BDY_EM_CHEM_inline.inc
d01 2018-04-05_11:51:00 calling inc/PERIOD_BDY_EM_TRACER_inline.inc
d01 2018-04-05_11:51:00 calling inc/PERIOD_BDY_EM_SCALAR_inline.inc
d01 2018-04-05_11:51:00 calling inc/HALO_EM_C_inline.inc
d01 2018-04-05_11:51:00 calling inc/PERIOD_BDY_EM_E_inline.inc
d01 2018-04-05_11:51:00  call set_w_surface
d01 2018-04-05_11:51:00 calling inc/HALO_EM_PHYS_W_inline.inc
d01 2018-04-05_11:51:00 calling inc/HALO_EM_PHYS_HCW_inline.inc
d01 2018-04-05_11:51:00 --> TOP OF AFTER ALL RK STEPS
d01 2018-04-05_11:51:00 --> CALLING DIAGNOSTICS DRIVER
d01 2018-04-05_11:51:00 --> TOP OF DIAGNOSTICS PACKAGE
d01 2018-04-05_11:51:00 --> CALL DIAGNOSTICS PACKAGE: NWP DIAGNOSTICS
d01 2018-04-05_11:51:00 calling inc/HALO_EM_E_5_inline.inc
d01 2018-04-05_11:51:00 calling inc/HALO_EM_MOIST_E_5_inline.inc
d01 2018-04-05_11:51:00 calling inc/HALO_EM_SCALAR_E_5_inline.inc
d01 2018-04-05_11:54:00 module_integrate: back from solve interface
Timing for main: time 2018-04-05_11:54:00 on domain   1:    0.47220 elapsed seconds
d01 2018-04-05_11:54:00 module_integrate: calling solve interface
d01 2018-04-05_11:54:00  grid spacing, dt, time_step_sound=   30000.0000       180.000000               4
d01 2018-04-05_11:54:00 calling inc/HALO_EM_A_inline.inc
d01 2018-04-05_11:54:00 calling inc/PERIOD_BDY_EM_A_inline.inc
d01 2018-04-05_11:54:00 calling inc/HALO_EM_PHYS_A_inline.inc
d01 2018-04-05_11:54:00 Top of Radiation Driver
d01 2018-04-05_11:54:00 calling inc/HALO_PWP_inline.inc
d01 2018-04-05_11:54:00 in MYJSFC
d01 2018-04-05_11:54:00 in NOAH DRV
d01 2018-04-05_11:54:00 in MYJPBL
d01 2018-04-05_11:54:00 calling inc/HALO_EM_FDDA_SFC_inline.inc
d01 2018-04-05_11:54:00 calling inc/HALO_EM_TKE_C_inline.inc
d01 2018-04-05_11:54:00 calling inc/PERIOD_BDY_EM_A1_inline.inc
d01 2018-04-05_11:54:00 calling inc/HALO_EM_HELICITY_inline.inc
d01 2018-04-05_11:54:00 calling inc/HALO_EM_TKE_D_inline.inc
d01 2018-04-05_11:54:00 calling inc/HALO_EM_TKE_E_inline.inc
d01 2018-04-05_11:54:00 calling inc/PERIOD_BDY_EM_PHY_BC_inline.inc
d01 2018-04-05_11:54:00 calling inc/PERIOD_BDY_EM_CHEM_inline.inc
d01 2018-04-05_11:54:00 calling inc/HALO_EM_PHYS_PBL_inline.inc
d01 2018-04-05_11:54:00 calling inc/HALO_EM_PHYS_CU_inline.inc
d01 2018-04-05_11:54:00 calling inc/HALO_EM_PHYS_DIFFUSION_inline.inc
d01 2018-04-05_11:54:00 calling inc/HALO_EM_TKE_5_inline.inc
d01 2018-04-05_11:54:00 calling inc/HALO_EM_B_inline.inc
d01 2018-04-05_11:54:00 calling inc/PERIOD_BDY_EM_B_inline.inc
d01 2018-04-05_11:54:00 calling inc/PERIOD_BDY_EM_B_inline.inc
d01 2018-04-05_11:54:00 calling inc/HALO_EM_C_inline.inc
d01 2018-04-05_11:54:00 calling inc/HALO_EM_C2_inline.inc
d01 2018-04-05_11:54:00 calling inc/PERIOD_BDY_EM_B3_inline.inc
d01 2018-04-05_11:54:00 calling inc/HALO_EM_D_inline.inc
d01 2018-04-05_11:54:00 calling inc/PERIOD_EM_DA_inline.inc
d01 2018-04-05_11:54:00 calling inc/HALO_EM_D2_5_inline.inc
d01 2018-04-05_11:54:00 calling inc/PERIOD_BDY_EM_D_inline.inc
d01 2018-04-05_11:54:00 calling inc/PERIOD_BDY_EM_MOIST2_inline.inc
d01 2018-04-05_11:54:00 calling inc/PERIOD_BDY_EM_CHEM2_inline.inc
d01 2018-04-05_11:54:00 calling inc/PERIOD_BDY_EM_TRACER2_inline.inc
d01 2018-04-05_11:54:00 calling inc/PERIOD_BDY_EM_SCALAR2_inline.inc
d01 2018-04-05_11:54:00 calling inc/PERIOD_BDY_EM_TKE_inline.inc
d01 2018-04-05_11:54:00 calling inc/HALO_EM_TKE_5_inline.inc
d01 2018-04-05_11:54:00 calling inc/HALO_EM_MOIST_E_5_inline.inc
d01 2018-04-05_11:54:00 calling inc/HALO_EM_SCALAR_E_5_inline.inc
d01 2018-04-05_11:54:00 calling inc/HALO_EM_A_inline.inc
d01 2018-04-05_11:54:00 calling inc/PERIOD_BDY_EM_A_inline.inc
d01 2018-04-05_11:54:00 calling inc/HALO_EM_B_inline.inc
d01 2018-04-05_11:54:00 calling inc/PERIOD_BDY_EM_B_inline.inc
d01 2018-04-05_11:54:00 calling inc/PERIOD_BDY_EM_B_inline.inc
d01 2018-04-05_11:54:00 calling inc/HALO_EM_C_inline.inc
d01 2018-04-05_11:54:00 calling inc/HALO_EM_C2_inline.inc
d01 2018-04-05_11:54:00 calling inc/PERIOD_BDY_EM_B3_inline.inc
d01 2018-04-05_11:54:00 calling inc/PERIOD_BDY_EM_B_inline.inc
d01 2018-04-05_11:54:00 calling inc/HALO_EM_C_inline.inc
d01 2018-04-05_11:54:00 calling inc/HALO_EM_C2_inline.inc
d01 2018-04-05_11:54:00 calling inc/PERIOD_BDY_EM_B3_inline.inc
d01 2018-04-05_11:54:00 calling inc/HALO_EM_D_inline.inc
d01 2018-04-05_11:54:00 calling inc/PERIOD_EM_DA_inline.inc
d01 2018-04-05_11:54:00 calling inc/HALO_EM_D2_5_inline.inc
d01 2018-04-05_11:54:00 calling inc/PERIOD_BDY_EM_D_inline.inc
d01 2018-04-05_11:54:00 calling inc/PERIOD_BDY_EM_MOIST2_inline.inc
d01 2018-04-05_11:54:00 calling inc/PERIOD_BDY_EM_CHEM2_inline.inc
d01 2018-04-05_11:54:00 calling inc/PERIOD_BDY_EM_TRACER2_inline.inc
d01 2018-04-05_11:54:00 calling inc/PERIOD_BDY_EM_SCALAR2_inline.inc
d01 2018-04-05_11:54:00 calling inc/PERIOD_BDY_EM_TKE_inline.inc
d01 2018-04-05_11:54:00 calling inc/HALO_EM_TKE_7_inline.inc
d01 2018-04-05_11:54:00 calling inc/HALO_EM_MOIST_E_7_inline.inc
d01 2018-04-05_11:54:00 calling inc/HALO_EM_SCALAR_E_7_inline.inc
d01 2018-04-05_11:54:00 calling inc/HALO_EM_A_inline.inc
d01 2018-04-05_11:54:00 calling inc/PERIOD_BDY_EM_A_inline.inc
d01 2018-04-05_11:54:00 calling inc/HALO_EM_B_inline.inc
d01 2018-04-05_11:54:00 calling inc/PERIOD_BDY_EM_B_inline.inc
d01 2018-04-05_11:54:00 calling inc/PERIOD_BDY_EM_B_inline.inc
d01 2018-04-05_11:54:00 calling inc/HALO_EM_C_inline.inc
d01 2018-04-05_11:54:00 calling inc/HALO_EM_C2_inline.inc
d01 2018-04-05_11:54:00 calling inc/PERIOD_BDY_EM_B3_inline.inc
d01 2018-04-05_11:54:00 calling inc/PERIOD_BDY_EM_B_inline.inc
d01 2018-04-05_11:54:00 calling inc/HALO_EM_C_inline.inc
d01 2018-04-05_11:54:00 calling inc/HALO_EM_C2_inline.inc
d01 2018-04-05_11:54:00 calling inc/PERIOD_BDY_EM_B3_inline.inc
d01 2018-04-05_11:54:00 calling inc/PERIOD_BDY_EM_B_inline.inc
d01 2018-04-05_11:54:00 calling inc/HALO_EM_C_inline.inc
d01 2018-04-05_11:54:00 calling inc/HALO_EM_C2_inline.inc
d01 2018-04-05_11:54:00 calling inc/PERIOD_BDY_EM_B3_inline.inc
d01 2018-04-05_11:54:00 calling inc/PERIOD_BDY_EM_B_inline.inc
d01 2018-04-05_11:54:00 calling inc/HALO_EM_C_inline.inc
d01 2018-04-05_11:54:00 calling inc/HALO_EM_C2_inline.inc
d01 2018-04-05_11:54:00 calling inc/PERIOD_BDY_EM_B3_inline.inc
d01 2018-04-05_11:54:00 calling inc/HALO_EM_MOIST_OLD_E_7_inline.inc
d01 2018-04-05_11:54:00 calling inc/PERIOD_BDY_EM_MOIST_OLD_inline.inc
d01 2018-04-05_11:54:00 calling inc/HALO_EM_SCALAR_OLD_E_7_inline.inc
d01 2018-04-05_11:54:00 calling inc/PERIOD_BDY_EM_SCALAR_OLD_inline.inc
d01 2018-04-05_11:54:00 calling inc/HALO_EM_CHEM_OLD_E_7_inline.inc
d01 2018-04-05_11:54:00 calling inc/PERIOD_BDY_EM_CHEM_OLD_inline.inc
d01 2018-04-05_11:54:00 calling inc/HALO_EM_TRACER_OLD_E_7_inline.inc
d01 2018-04-05_11:54:00 calling inc/PERIOD_BDY_EM_TRACER_OLD_inline.inc
d01 2018-04-05_11:54:00 calling inc/HALO_EM_D_inline.inc
d01 2018-04-05_11:54:00 calling inc/PERIOD_EM_DA_inline.inc
d01 2018-04-05_11:54:00 calling inc/HALO_EM_SBM_inline.inc
d01 2018-04-05_11:54:00 microphysics_driver: calling thompson
d01 2018-04-05_11:54:00 calling inc/HALO_EM_D3_5_inline.inc
d01 2018-04-05_11:54:00 calling inc/PERIOD_BDY_EM_D3_inline.inc
d01 2018-04-05_11:54:00 calling inc/PERIOD_BDY_EM_MOIST_inline.inc
d01 2018-04-05_11:54:00 calling inc/PERIOD_BDY_EM_CHEM_inline.inc
d01 2018-04-05_11:54:00 calling inc/PERIOD_BDY_EM_TRACER_inline.inc
d01 2018-04-05_11:54:00 calling inc/PERIOD_BDY_EM_SCALAR_inline.inc
d01 2018-04-05_11:54:00 calling inc/HALO_EM_C_inline.inc
d01 2018-04-05_11:54:00 calling inc/PERIOD_BDY_EM_E_inline.inc
d01 2018-04-05_11:54:00  call set_w_surface
d01 2018-04-05_11:54:00 calling inc/HALO_EM_PHYS_W_inline.inc
d01 2018-04-05_11:54:00 calling inc/HALO_EM_PHYS_HCW_inline.inc
d01 2018-04-05_11:54:00 --> TOP OF AFTER ALL RK STEPS
d01 2018-04-05_11:54:00 --> CALLING DIAGNOSTICS DRIVER
d01 2018-04-05_11:54:00 --> TOP OF DIAGNOSTICS PACKAGE
d01 2018-04-05_11:54:00 --> CALL DIAGNOSTICS PACKAGE: NWP DIAGNOSTICS
d01 2018-04-05_11:54:00 calling inc/HALO_EM_E_5_inline.inc
d01 2018-04-05_11:54:00 calling inc/HALO_EM_MOIST_E_5_inline.inc
d01 2018-04-05_11:54:00 calling inc/HALO_EM_SCALAR_E_5_inline.inc
d01 2018-04-05_11:57:00 module_integrate: back from solve interface
Timing for main: time 2018-04-05_11:57:00 on domain   1:    0.48718 elapsed seconds
d01 2018-04-05_11:57:00 module_integrate: calling solve interface
d01 2018-04-05_11:57:00  grid spacing, dt, time_step_sound=   30000.0000       180.000000               4
d01 2018-04-05_11:57:00 calling inc/HALO_EM_A_inline.inc
d01 2018-04-05_11:57:00 calling inc/PERIOD_BDY_EM_A_inline.inc
d01 2018-04-05_11:57:00 calling inc/HALO_EM_PHYS_A_inline.inc
d01 2018-04-05_11:57:00 Top of Radiation Driver
d01 2018-04-05_11:57:00 calling inc/HALO_PWP_inline.inc
d01 2018-04-05_11:57:00 in MYJSFC
d01 2018-04-05_11:57:00 in NOAH DRV
d01 2018-04-05_11:57:00 in MYJPBL
d01 2018-04-05_11:57:00 in cu_tiedtke
d01 2018-04-05_11:57:00 calling inc/HALO_EM_FDDA_SFC_inline.inc
d01 2018-04-05_11:57:00 calling inc/HALO_EM_TKE_C_inline.inc
d01 2018-04-05_11:57:00 calling inc/PERIOD_BDY_EM_A1_inline.inc
d01 2018-04-05_11:57:00 calling inc/HALO_EM_HELICITY_inline.inc
d01 2018-04-05_11:57:00 calling inc/HALO_EM_TKE_D_inline.inc
d01 2018-04-05_11:57:00 calling inc/HALO_EM_TKE_E_inline.inc
d01 2018-04-05_11:57:00 calling inc/PERIOD_BDY_EM_PHY_BC_inline.inc
d01 2018-04-05_11:57:00 calling inc/PERIOD_BDY_EM_CHEM_inline.inc
d01 2018-04-05_11:57:00 calling inc/HALO_EM_PHYS_PBL_inline.inc
d01 2018-04-05_11:57:00 calling inc/HALO_EM_PHYS_CU_inline.inc
d01 2018-04-05_11:57:00 calling inc/HALO_EM_PHYS_DIFFUSION_inline.inc
d01 2018-04-05_11:57:00 calling inc/HALO_EM_TKE_5_inline.inc
d01 2018-04-05_11:57:00 calling inc/HALO_EM_B_inline.inc
d01 2018-04-05_11:57:00 calling inc/PERIOD_BDY_EM_B_inline.inc
d01 2018-04-05_11:57:00 calling inc/PERIOD_BDY_EM_B_inline.inc
d01 2018-04-05_11:57:00 calling inc/HALO_EM_C_inline.inc
d01 2018-04-05_11:57:00 calling inc/HALO_EM_C2_inline.inc
d01 2018-04-05_11:57:00 calling inc/PERIOD_BDY_EM_B3_inline.inc
d01 2018-04-05_11:57:00 calling inc/HALO_EM_D_inline.inc
d01 2018-04-05_11:57:00 calling inc/PERIOD_EM_DA_inline.inc
d01 2018-04-05_11:57:00 calling inc/HALO_EM_D2_5_inline.inc
d01 2018-04-05_11:57:00 calling inc/PERIOD_BDY_EM_D_inline.inc
d01 2018-04-05_11:57:00 calling inc/PERIOD_BDY_EM_MOIST2_inline.inc
d01 2018-04-05_11:57:00 calling inc/PERIOD_BDY_EM_CHEM2_inline.inc
d01 2018-04-05_11:57:00 calling inc/PERIOD_BDY_EM_TRACER2_inline.inc
d01 2018-04-05_11:57:00 calling inc/PERIOD_BDY_EM_SCALAR2_inline.inc
d01 2018-04-05_11:57:00 calling inc/PERIOD_BDY_EM_TKE_inline.inc
d01 2018-04-05_11:57:00 calling inc/HALO_EM_TKE_5_inline.inc
d01 2018-04-05_11:57:00 calling inc/HALO_EM_MOIST_E_5_inline.inc
d01 2018-04-05_11:57:00 calling inc/HALO_EM_SCALAR_E_5_inline.inc
d01 2018-04-05_11:57:00 calling inc/HALO_EM_A_inline.inc
d01 2018-04-05_11:57:00 calling inc/PERIOD_BDY_EM_A_inline.inc
d01 2018-04-05_11:57:00 calling inc/HALO_EM_B_inline.inc
d01 2018-04-05_11:57:00 calling inc/PERIOD_BDY_EM_B_inline.inc
d01 2018-04-05_11:57:00 calling inc/PERIOD_BDY_EM_B_inline.inc
d01 2018-04-05_11:57:00 calling inc/HALO_EM_C_inline.inc
d01 2018-04-05_11:57:00 calling inc/HALO_EM_C2_inline.inc
d01 2018-04-05_11:57:00 calling inc/PERIOD_BDY_EM_B3_inline.inc
d01 2018-04-05_11:57:00 calling inc/PERIOD_BDY_EM_B_inline.inc
d01 2018-04-05_11:57:00 calling inc/HALO_EM_C_inline.inc
d01 2018-04-05_11:57:00 calling inc/HALO_EM_C2_inline.inc
d01 2018-04-05_11:57:00 calling inc/PERIOD_BDY_EM_B3_inline.inc
d01 2018-04-05_11:57:00 calling inc/HALO_EM_D_inline.inc
d01 2018-04-05_11:57:00 calling inc/PERIOD_EM_DA_inline.inc
d01 2018-04-05_11:57:00 calling inc/HALO_EM_D2_5_inline.inc
d01 2018-04-05_11:57:00 calling inc/PERIOD_BDY_EM_D_inline.inc
d01 2018-04-05_11:57:00 calling inc/PERIOD_BDY_EM_MOIST2_inline.inc
d01 2018-04-05_11:57:00 calling inc/PERIOD_BDY_EM_CHEM2_inline.inc
d01 2018-04-05_11:57:00 calling inc/PERIOD_BDY_EM_TRACER2_inline.inc
d01 2018-04-05_11:57:00 calling inc/PERIOD_BDY_EM_SCALAR2_inline.inc
d01 2018-04-05_11:57:00 calling inc/PERIOD_BDY_EM_TKE_inline.inc
d01 2018-04-05_11:57:00 calling inc/HALO_EM_TKE_7_inline.inc
d01 2018-04-05_11:57:00 calling inc/HALO_EM_MOIST_E_7_inline.inc
d01 2018-04-05_11:57:00 calling inc/HALO_EM_SCALAR_E_7_inline.inc
d01 2018-04-05_11:57:00 calling inc/HALO_EM_A_inline.inc
d01 2018-04-05_11:57:00 calling inc/PERIOD_BDY_EM_A_inline.inc
d01 2018-04-05_11:57:00 calling inc/HALO_EM_B_inline.inc
d01 2018-04-05_11:57:00 calling inc/PERIOD_BDY_EM_B_inline.inc
d01 2018-04-05_11:57:00 calling inc/PERIOD_BDY_EM_B_inline.inc
d01 2018-04-05_11:57:00 calling inc/HALO_EM_C_inline.inc
d01 2018-04-05_11:57:00 calling inc/HALO_EM_C2_inline.inc
d01 2018-04-05_11:57:00 calling inc/PERIOD_BDY_EM_B3_inline.inc
d01 2018-04-05_11:57:00 calling inc/PERIOD_BDY_EM_B_inline.inc
d01 2018-04-05_11:57:00 calling inc/HALO_EM_C_inline.inc
d01 2018-04-05_11:57:00 calling inc/HALO_EM_C2_inline.inc
d01 2018-04-05_11:57:00 calling inc/PERIOD_BDY_EM_B3_inline.inc
d01 2018-04-05_11:57:00 calling inc/PERIOD_BDY_EM_B_inline.inc
d01 2018-04-05_11:57:00 calling inc/HALO_EM_C_inline.inc
d01 2018-04-05_11:57:00 calling inc/HALO_EM_C2_inline.inc
d01 2018-04-05_11:57:00 calling inc/PERIOD_BDY_EM_B3_inline.inc
d01 2018-04-05_11:57:00 calling inc/PERIOD_BDY_EM_B_inline.inc
d01 2018-04-05_11:57:00 calling inc/HALO_EM_C_inline.inc
d01 2018-04-05_11:57:00 calling inc/HALO_EM_C2_inline.inc
d01 2018-04-05_11:57:00 calling inc/PERIOD_BDY_EM_B3_inline.inc
d01 2018-04-05_11:57:00 calling inc/HALO_EM_MOIST_OLD_E_7_inline.inc
d01 2018-04-05_11:57:00 calling inc/PERIOD_BDY_EM_MOIST_OLD_inline.inc
d01 2018-04-05_11:57:00 calling inc/HALO_EM_SCALAR_OLD_E_7_inline.inc
d01 2018-04-05_11:57:00 calling inc/PERIOD_BDY_EM_SCALAR_OLD_inline.inc
d01 2018-04-05_11:57:00 calling inc/HALO_EM_CHEM_OLD_E_7_inline.inc
d01 2018-04-05_11:57:00 calling inc/PERIOD_BDY_EM_CHEM_OLD_inline.inc
d01 2018-04-05_11:57:00 calling inc/HALO_EM_TRACER_OLD_E_7_inline.inc
d01 2018-04-05_11:57:00 calling inc/PERIOD_BDY_EM_TRACER_OLD_inline.inc
d01 2018-04-05_11:57:00 calling inc/HALO_EM_D_inline.inc
d01 2018-04-05_11:57:00 calling inc/PERIOD_EM_DA_inline.inc
d01 2018-04-05_11:57:00 calling inc/HALO_EM_SBM_inline.inc
d01 2018-04-05_11:57:00 microphysics_driver: calling thompson
d01 2018-04-05_11:57:00 calling inc/HALO_EM_D3_5_inline.inc
d01 2018-04-05_11:57:00 calling inc/PERIOD_BDY_EM_D3_inline.inc
d01 2018-04-05_11:57:00 calling inc/PERIOD_BDY_EM_MOIST_inline.inc
d01 2018-04-05_11:57:00 calling inc/PERIOD_BDY_EM_CHEM_inline.inc
d01 2018-04-05_11:57:00 calling inc/PERIOD_BDY_EM_TRACER_inline.inc
d01 2018-04-05_11:57:00 calling inc/PERIOD_BDY_EM_SCALAR_inline.inc
d01 2018-04-05_11:57:00 calling inc/HALO_EM_C_inline.inc
d01 2018-04-05_11:57:00 calling inc/PERIOD_BDY_EM_E_inline.inc
d01 2018-04-05_11:57:00  call set_w_surface
d01 2018-04-05_11:57:00 calling inc/HALO_EM_PHYS_W_inline.inc
d01 2018-04-05_11:57:00 calling inc/HALO_EM_PHYS_HCW_inline.inc
d01 2018-04-05_11:57:00 --> TOP OF AFTER ALL RK STEPS
d01 2018-04-05_11:57:00 --> CALLING DIAGNOSTICS DRIVER
d01 2018-04-05_11:57:00 --> TOP OF DIAGNOSTICS PACKAGE
d01 2018-04-05_11:57:00 --> CALL DIAGNOSTICS PACKAGE: NWP DIAGNOSTICS
d01 2018-04-05_11:57:00 calling inc/HALO_EM_E_5_inline.inc
d01 2018-04-05_11:57:00 calling inc/HALO_EM_MOIST_E_5_inline.inc
d01 2018-04-05_11:57:00 calling inc/HALO_EM_SCALAR_E_5_inline.inc
d01 2018-04-05_12:00:00 module_integrate: back from solve interface
Timing for main: time 2018-04-05_12:00:00 on domain   1:    0.51731 elapsed seconds
d01 2018-04-05_12:00:00  med_hist_out: opened wrfout_d01_2018-04-05_12:00:00 as DATASET=HISTORY
Timing for Writing wrfout_d01_2018-04-05_12:00:00 for domain        1:    0.48429 elapsed seconds
d01 2018-04-05_12:00:00 wrf: back from integrate
d01 2018-04-05_12:00:00 Entering ext_gr1_ioexit
d01 2018-04-05_12:00:00 wrf: back from med_shutdown_io
d01 2018-04-05_12:00:00 wrf: SUCCESS COMPLETE WRF
